2724
  Marvin  02231216192D 0   1.00000     0.00000     0

 16 17  0  0  1  0  0  0  0  0999 V2000
    1.7558    2.8334    0.0000 O   0  0  0  0  0  0  0  0  0
    1.7558    2.0084    0.0000 C   0  0  0  0  0  0  0  0  0
    2.4703    1.5959    0.0000 C   0  0  0  0  0  0  0  0  0
    2.4703    0.7709    0.0000 C   0  0  0  0  0  0  0  0  0
    1.7558    0.3584    0.0000 C   0  0  0  0  0  0  0  0  0
    1.0413    0.7709    0.0000 C   0  0  0  0  0  0  0  0  0
    1.0413    1.5959    0.0000 C   0  0  0  0  0  0  0  0  0
    3.1847    0.3584    0.0000 C   0  0  0  0  0  0  0  0  0
    3.8992    0.7709    0.0000 C   0  0  0  0  0  0  0  0  0
    4.6137    0.3584    0.0000 C   0  0  0  0  0  0  0  0  0
    4.6137   -0.4666    0.0000 C   0  0  0  0  0  0  0  0  0
    3.8992   -0.8791    0.0000 N   0  0  0  0  0  0  0  0  0
    3.1847   -0.4666    0.0000 C   0  0  0  0  0  0  0  0  0
    3.8992   -1.7041    0.0000 C   0  0  0  0  0  0  0  0  0
    3.1847   -2.1166    0.0000 C   0  0  0  0  0  0  0  0  0
    3.1847   -2.9416    0.0000 C   0  0  0  0  0  0  0  0  0
  1  2  1  0  0  0  0
  2  3  4  0  0  0  0
  2  7  4  0  0  0  0
  3  4  4  0  0  0  0
  4  5  4  0  0  0  0
  4  8  1  0  0  0  0
  5  6  4  0  0  0  0
  6  7  4  0  0  0  0
  8  9  1  0  0  0  0
  8 13  1  0  0  0  0
  9 10  1  0  0  0  0
 10 11  1  0  0  0  0
 11 12  1  0  0  0  0
 12 13  1  0  0  0  0
 12 14  1  0  0  0  0
 14 15  1  0  0  0  0
 15 16  1  0  0  0  0
M  END
>  <Name_Molregno>
2724

>  <5-HT1A>
5.73

>  <5-HT1E>
5

>  <5-HT3>
5

>  <5-HT5>
5

>  <5-HT6>
5

>  <Alpha-1A>
5

>  <Alpha-1B>
5

>  <Beta-2>
5

>  <DOPAMINE D1>
5

>  <DOPAMINE D2>
6.47

>  <DOPAMINE D3>
6.93

>  <DOPAMINE D4>
6.29

>  <DOPAMINE D5>
5.31

>  <Dopamine transporter>
5

>  <Muscarinic acetylcholine receptor M1>
5

>  <Muscarinic acetylcholine receptor M2>
5

>  <Muscarinic acetylcholine receptor M3>
5

>  <Muscarinic acetylcholine receptor M4>
5

>  <Muscarinic acetylcholine receptor M5>
5

>  <Norepinephrine transporter>
5.64

>  <Serotonin transporter>
5

$$$$
14240
  Marvin  02231216192D 0   1.00000     0.00000     0

 19 21  0  0  1  0  0  0  0  0999 V2000
    5.1750   -2.2370    0.0000 I   0  0  0  0  0  0  0  0  0
    4.7632   -1.5221    0.0000 C   0  0  0  0  0  0  0  0  0
    3.9382   -1.5213    0.0000 C   0  0  0  0  0  0  0  0  0
    3.5264   -0.8064    0.0000 C   0  0  0  0  0  0  0  0  0
    3.9396   -0.0924    0.0000 C   0  0  0  0  0  0  0  0  0
    4.7646   -0.0932    0.0000 C   0  0  0  0  0  0  0  0  0
    5.1764   -0.8081    0.0000 C   0  0  0  0  0  0  0  0  0
    3.5278    0.6225    0.0000 C   0  0  0  0  0  0  0  0  0
    3.3896    1.4399    0.0000 C   0  0  0  0  0  0  0  0  0
    2.4608    1.4244    0.0000 C   0  0  0  0  0  0  0  0  0
    1.9002    1.8643    0.0000 N   0  0  0  0  0  0  0  0  0
    2.0399    1.0512    0.0000 C   0  0  0  0  0  0  0  0  0
    1.5200    0.3389    0.0000 C   0  0  0  0  0  0  0  0  0
    2.1403    0.7158    0.0000 C   0  0  0  0  0  0  0  0  0
    3.0116    1.0512    0.0000 C   0  0  0  0  0  0  0  0  0
    2.7314    0.2752    0.0000 C   0  0  0  0  0  0  0  0  0
    1.9193    0.1299    0.0000 O   0  0  0  0  0  0  0  0  0
    1.6391   -0.6460    0.0000 C   0  0  0  0  0  0  0  0  0
    3.2633   -0.3554    0.0000 O   0  0  0  0  0  0  0  0  0
  1  2  1  0  0  0  0
  2  3  4  0  0  0  0
  2  7  4  0  0  0  0
  3  4  4  0  0  0  0
  4  5  4  0  0  0  0
  5  6  4  0  0  0  0
  5  8  1  0  0  0  0
  6  7  4  0  0  0  0
  8  9  1  0  0  0  0
  8 15  1  0  0  0  0
  9 10  1  0  0  0  0
 10 11  1  0  0  0  0
 10 14  1  0  0  0  0
 11 12  1  0  0  0  0
 12 13  1  0  0  0  0
 12 15  1  0  0  0  0
 13 14  1  0  0  0  0
 15 16  1  0  0  0  0
 16 17  1  0  0  0  0
 16 19  2  0  0  0  0
 17 18  1  0  0  0  0
M  END
>  <Name_Molregno>
14240

>  <Dopamine transporter>
8.65

>  <Norepinephrine transporter>
8.7

>  <Serotonin transporter>
8.91

$$$$
14241
  Marvin  02231216192D 0   1.00000     0.00000     0

 20 22  0  0  1  0  0  0  0  0999 V2000
    5.3954   -2.4329    0.0000 I   0  0  0  0  0  0  0  0  0
    4.9836   -1.7180    0.0000 C   0  0  0  0  0  0  0  0  0
    4.1586   -1.7172    0.0000 C   0  0  0  0  0  0  0  0  0
    3.7468   -1.0023    0.0000 C   0  0  0  0  0  0  0  0  0
    4.1600   -0.2882    0.0000 C   0  0  0  0  0  0  0  0  0
    4.9850   -0.2890    0.0000 C   0  0  0  0  0  0  0  0  0
    5.3968   -1.0039    0.0000 C   0  0  0  0  0  0  0  0  0
    3.7482    0.4267    0.0000 C   0  0  0  0  0  0  0  0  0
    3.6100    1.2441    0.0000 C   0  0  0  0  0  0  0  0  0
    2.6812    1.2286    0.0000 C   0  0  0  0  0  0  0  0  0
    2.1206    1.6685    0.0000 N   0  0  0  0  0  0  0  0  0
    2.2603    0.8554    0.0000 C   0  0  0  0  0  0  0  0  0
    1.7404    0.1431    0.0000 C   0  0  0  0  0  0  0  0  0
    2.3607    0.5200    0.0000 C   0  0  0  0  0  0  0  0  0
    3.2320    0.8554    0.0000 C   0  0  0  0  0  0  0  0  0
    2.9518    0.0794    0.0000 C   0  0  0  0  0  0  0  0  0
    2.1397   -0.0659    0.0000 O   0  0  0  0  0  0  0  0  0
    1.8595   -0.8419    0.0000 C   0  0  0  0  0  0  0  0  0
    3.4837   -0.5512    0.0000 O   0  0  0  0  0  0  0  0  0
    1.6980    2.3770    0.0000 C   0  0  0  0  0  0  0  0  0
  1  2  1  0  0  0  0
  2  3  4  0  0  0  0
  2  7  4  0  0  0  0
  3  4  4  0  0  0  0
  4  5  4  0  0  0  0
  5  6  4  0  0  0  0
  5  8  1  0  0  0  0
  6  7  4  0  0  0  0
  8  9  1  0  0  0  0
  8 15  1  0  0  0  0
  9 10  1  0  0  0  0
 10 11  1  0  0  0  0
 10 14  1  0  0  0  0
 11 12  1  0  0  0  0
 11 20  1  0  0  0  0
 12 13  1  0  0  0  0
 12 15  1  0  0  0  0
 13 14  1  0  0  0  0
 15 16  1  0  0  0  0
 16 17  1  0  0  0  0
 16 19  2  0  0  0  0
 17 18  1  0  0  0  0
M  END
>  <Name_Molregno>
14241

>  <Dopamine transporter>
8.29

>  <Norepinephrine transporter>
7.45

>  <Serotonin transporter>
8.46

$$$$
14309
  Marvin  02231216192D 0   1.00000     0.00000     0

 21 23  0  0  1  0  0  0  0  0999 V2000
    6.9511   -2.1479    0.0000 I   0  0  0  0  0  0  0  0  0
    6.5393   -1.4330    0.0000 C   0  0  0  0  0  0  0  0  0
    5.7143   -1.4322    0.0000 C   0  0  0  0  0  0  0  0  0
    5.3025   -0.7173    0.0000 C   0  0  0  0  0  0  0  0  0
    4.4775   -0.7165    0.0000 C   0  0  0  0  0  0  0  0  0
    4.0657   -0.0016    0.0000 C   0  0  0  0  0  0  0  0  0
    4.4789    0.7125    0.0000 C   0  0  0  0  0  0  0  0  0
    5.3039    0.7117    0.0000 C   0  0  0  0  0  0  0  0  0
    5.7157   -0.0032    0.0000 C   0  0  0  0  0  0  0  0  0
    4.0671    1.4273    0.0000 C   0  0  0  0  0  0  0  0  0
    3.9289    2.2447    0.0000 C   0  0  0  0  0  0  0  0  0
    3.0001    2.2292    0.0000 C   0  0  0  0  0  0  0  0  0
    2.4395    2.6691    0.0000 N   0  0  0  0  0  0  0  0  0
    2.5792    1.8560    0.0000 C   0  0  0  0  0  0  0  0  0
    2.0593    1.1437    0.0000 C   0  0  0  0  0  0  0  0  0
    2.6796    1.5206    0.0000 C   0  0  0  0  0  0  0  0  0
    3.5509    1.8560    0.0000 C   0  0  0  0  0  0  0  0  0
    3.2707    1.0801    0.0000 C   0  0  0  0  0  0  0  0  0
    2.4586    0.9348    0.0000 O   0  0  0  0  0  0  0  0  0
    2.1784    0.1588    0.0000 C   0  0  0  0  0  0  0  0  0
    3.8026    0.4494    0.0000 O   0  0  0  0  0  0  0  0  0
  1  2  1  0  0  0  0
  2  3  2  0  0  0  0
  3  4  1  0  0  0  0
  4  5  4  0  0  0  0
  4  9  4  0  0  0  0
  5  6  4  0  0  0  0
  6  7  4  0  0  0  0
  7  8  4  0  0  0  0
  7 10  1  0  0  0  0
  8  9  4  0  0  0  0
 10 11  1  0  0  0  0
 10 17  1  0  0  0  0
 11 12  1  0  0  0  0
 12 13  1  0  0  0  0
 12 16  1  0  0  0  0
 13 14  1  0  0  0  0
 14 15  1  0  0  0  0
 14 17  1  0  0  0  0
 15 16  1  0  0  0  0
 17 18  1  0  0  0  0
 18 19  1  0  0  0  0
 18 21  2  0  0  0  0
 19 20  1  0  0  0  0
M  END
>  <Name_Molregno>
14309

>  <Dopamine transporter>
8.22

>  <Norepinephrine transporter>
7.82

>  <Serotonin transporter>
10.38

$$$$
22470
  Marvin  02231216192D 0   1.00000     0.00000     0

 22 24  0  0  1  0  0  0  0  0999 V2000
    1.4966    1.5869    0.0000 O   0  0  0  0  0  0  0  0  0
    2.2110    1.1744    0.0000 C   0  0  0  0  0  0  0  0  0
    2.2110    0.3494    0.0000 C   0  0  0  0  0  0  0  0  0
    2.9255   -0.0631    0.0000 C   0  0  0  0  0  0  0  0  0
    2.9255   -0.8881    0.0000 C   0  0  0  0  0  0  0  0  0
    2.2110   -1.3006    0.0000 N   0  0  0  0  0  0  0  0  0
    1.4966   -0.8881    0.0000 C   0  0  0  0  0  0  0  0  0
    1.4966   -0.0631    0.0000 C   0  0  0  0  0  0  0  0  0
    2.2110   -2.1256    0.0000 C   0  0  0  0  0  0  0  0  0
    1.4966   -2.5381    0.0000 C   0  0  0  0  0  0  0  0  0
    1.4966   -3.3631    0.0000 C   0  0  0  0  0  0  0  0  0
    2.2110   -3.7756    0.0000 C   0  0  0  0  0  0  0  0  0
    2.2110   -4.6006    0.0000 C   0  0  0  0  0  0  0  0  0
    1.4966   -5.0131    0.0000 C   0  0  0  0  0  0  0  0  0
    0.7821   -4.6006    0.0000 C   0  0  0  0  0  0  0  0  0
    0.7821   -3.7756    0.0000 C   0  0  0  0  0  0  0  0  0
    2.9255    1.5869    0.0000 C   0  0  0  0  0  0  0  0  0
    2.9255    2.4119    0.0000 C   0  0  0  0  0  0  0  0  0
    3.6400    2.8244    0.0000 C   0  0  0  0  0  0  0  0  0
    4.3544    2.4119    0.0000 C   0  0  0  0  0  0  0  0  0
    4.3544    1.5869    0.0000 C   0  0  0  0  0  0  0  0  0
    3.6400    1.1744    0.0000 C   0  0  0  0  0  0  0  0  0
  1  2  1  0  0  0  0
  2  3  1  0  0  0  0
  2 17  1  0  0  0  0
  3  4  1  0  0  0  0
  3  8  1  0  0  0  0
  4  5  1  0  0  0  0
  5  6  1  0  0  0  0
  6  7  1  0  0  0  0
  6  9  1  0  0  0  0
  7  8  1  0  0  0  0
  9 10  1  0  0  0  0
 10 11  1  0  0  0  0
 11 12  4  0  0  0  0
 11 16  4  0  0  0  0
 12 13  4  0  0  0  0
 13 14  4  0  0  0  0
 14 15  4  0  0  0  0
 15 16  4  0  0  0  0
 17 18  4  0  0  0  0
 17 22  4  0  0  0  0
 18 19  4  0  0  0  0
 19 20  4  0  0  0  0
 20 21  4  0  0  0  0
 21 22  4  0  0  0  0
M  END
>  <Name_Molregno>
22470

>  <5-HT1A>
5.47

>  <5-HT2A>
8.13

>  <5-HT2C>
6.28

>  <5-HT6>
5.56

>  <Alpha-1A>
5.73

>  <Alpha-1B>
5.8

>  <Alpha-2A>
5.8

>  <Alpha-2C>
5.93

>  <DOPAMINE D1>
6.49

>  <DOPAMINE D4>
5.41

>  <DOPAMINE D5>
5.54

>  <Dopamine transporter>
5

>  <HISTAMINE H1>
5.79

>  <Norepinephrine transporter>
5

>  <Serotonin transporter>
5.59

$$$$
28068
  Marvin  02231216192D 0   1.00000     0.00000     0

 19 20  0  0  0  0  0  0  0  0999 V2000
   -0.2663    0.1112    0.0000 S   0  0  0  0  0  0  0  0  0
   -0.2663   -0.7138    0.0000 C   0  0  0  0  0  0  0  0  0
    0.4482   -1.1263    0.0000 C   0  0  0  0  0  0  0  0  0
    0.4482   -1.9513    0.0000 C   0  0  0  0  0  0  0  0  0
   -0.2663   -2.3638    0.0000 C   0  0  0  0  0  0  0  0  0
   -0.9808   -1.9513    0.0000 C   0  0  0  0  0  0  0  0  0
   -0.9808   -1.1263    0.0000 C   0  0  0  0  0  0  0  0  0
   -1.6953   -0.7138    0.0000 C   0  0  0  0  0  0  0  0  0
   -2.4097   -1.1263    0.0000 N   0  0  0  0  0  0  0  0  0
   -3.1242   -0.7138    0.0000 C   0  0  0  0  0  0  0  0  0
   -2.4097   -1.9513    0.0000 C   0  0  0  0  0  0  0  0  0
    0.4482    0.5237    0.0000 C   0  0  0  0  0  0  0  0  0
    0.4482    1.3487    0.0000 C   0  0  0  0  0  0  0  0  0
    1.1626    1.7612    0.0000 C   0  0  0  0  0  0  0  0  0
    1.8771    1.3487    0.0000 C   0  0  0  0  0  0  0  0  0
    1.8771    0.5237    0.0000 C   0  0  0  0  0  0  0  0  0
    1.1626    0.1112    0.0000 C   0  0  0  0  0  0  0  0  0
    1.1626   -0.7138    0.0000 N   0  0  0  0  0  0  0  0  0
    2.5916    1.7612    0.0000 C   0  0  0  0  0  0  0  0  0
  1  2  1  0  0  0  0
  1 12  1  0  0  0  0
  2  3  4  0  0  0  0
  2  7  4  0  0  0  0
  3  4  4  0  0  0  0
  4  5  4  0  0  0  0
  5  6  4  0  0  0  0
  6  7  4  0  0  0  0
  7  8  1  0  0  0  0
  8  9  1  0  0  0  0
  9 10  1  0  0  0  0
  9 11  1  0  0  0  0
 12 13  4  0  0  0  0
 12 17  4  0  0  0  0
 13 14  4  0  0  0  0
 14 15  4  0  0  0  0
 15 16  4  0  0  0  0
 15 19  1  0  0  0  0
 16 17  4  0  0  0  0
 17 18  1  0  0  0  0
M  END
>  <Name_Molregno>
28068

>  <Dopamine transporter>
5.76

>  <Norepinephrine transporter>
6.73

>  <Serotonin transporter>
8.97

$$$$
28220
  Marvin  02231216192D 0   1.00000     0.00000     0

 19 20  0  0  0  0  0  0  0  0999 V2000
    2.8789    2.7025    0.0000 I   0  0  0  0  0  0  0  0  0
    2.8789    1.8775    0.0000 C   0  0  0  0  0  0  0  0  0
    3.5934    1.4650    0.0000 C   0  0  0  0  0  0  0  0  0
    3.5934    0.6400    0.0000 C   0  0  0  0  0  0  0  0  0
    4.3079    0.2275    0.0000 N   0  0  0  0  0  0  0  0  0
    2.8789    0.2275    0.0000 C   0  0  0  0  0  0  0  0  0
    2.8789   -0.5975    0.0000 S   0  0  0  0  0  0  0  0  0
    3.5934   -1.0100    0.0000 C   0  0  0  0  0  0  0  0  0
    4.3079   -0.5975    0.0000 C   0  0  0  0  0  0  0  0  0
    5.0223   -1.0100    0.0000 C   0  0  0  0  0  0  0  0  0
    5.0223   -1.8350    0.0000 C   0  0  0  0  0  0  0  0  0
    4.3079   -2.2475    0.0000 C   0  0  0  0  0  0  0  0  0
    3.5934   -1.8350    0.0000 C   0  0  0  0  0  0  0  0  0
    2.8789   -2.2475    0.0000 C   0  0  0  0  0  0  0  0  0
    2.1645   -1.8350    0.0000 N   0  0  0  0  0  0  0  0  0
    1.4500   -2.2475    0.0000 C   0  0  0  0  0  0  0  0  0
    2.1645   -1.0100    0.0000 C   0  0  0  0  0  0  0  0  0
    2.1645    0.6400    0.0000 C   0  0  0  0  0  0  0  0  0
    2.1645    1.4650    0.0000 C   0  0  0  0  0  0  0  0  0
  1  2  1  0  0  0  0
  2  3  4  0  0  0  0
  2 19  4  0  0  0  0
  3  4  4  0  0  0  0
  4  5  1  0  0  0  0
  4  6  4  0  0  0  0
  6  7  1  0  0  0  0
  6 18  4  0  0  0  0
  7  8  1  0  0  0  0
  8  9  4  0  0  0  0
  8 13  4  0  0  0  0
  9 10  4  0  0  0  0
 10 11  4  0  0  0  0
 11 12  4  0  0  0  0
 12 13  4  0  0  0  0
 13 14  1  0  0  0  0
 14 15  1  0  0  0  0
 15 16  1  0  0  0  0
 15 17  1  0  0  0  0
 18 19  4  0  0  0  0
M  END
>  <Name_Molregno>
28220

>  <Dopamine transporter>
5.54

>  <Norepinephrine transporter>
6.01

>  <Serotonin transporter>
9.93

$$$$
35586
  Marvin  02231216192D 0   1.00000     0.00000     0

 31 34  0  0  0  0  0  0  0  0999 V2000
   -2.6792   -1.8315    0.0000 O   0  0  0  0  0  0  0  0  0
   -1.9647   -2.2440    0.0000 C   0  0  0  0  0  0  0  0  0
   -1.9647   -3.0690    0.0000 C   0  0  0  0  0  0  0  0  0
   -1.2502   -3.4815    0.0000 C   0  0  0  0  0  0  0  0  0
   -1.2502   -4.3065    0.0000 C   0  0  0  0  0  0  0  0  0
   -1.9647   -4.7190    0.0000 C   0  0  0  0  0  0  0  0  0
   -2.6792   -4.3065    0.0000 C   0  0  0  0  0  0  0  0  0
   -2.6792   -3.4815    0.0000 C   0  0  0  0  0  0  0  0  0
   -1.2502   -1.8315    0.0000 C   0  0  0  0  0  0  0  0  0
   -1.2502   -1.0065    0.0000 C   0  0  0  0  0  0  0  0  0
   -0.5358   -0.5940    0.0000 C   0  0  0  0  0  0  0  0  0
    0.1787   -1.0065    0.0000 C   0  0  0  0  0  0  0  0  0
    0.1787   -1.8315    0.0000 C   0  0  0  0  0  0  0  0  0
   -0.5358   -2.2440    0.0000 C   0  0  0  0  0  0  0  0  0
   -2.6792   -1.0065    0.0000 C   0  0  0  0  0  0  0  0  0
   -3.3936   -0.5940    0.0000 C   0  0  0  0  0  0  0  0  0
   -3.3936    0.2310    0.0000 N   0  0  0  0  0  0  0  0  0
   -4.1081    0.6435    0.0000 C   0  0  0  0  0  0  0  0  0
   -4.1081    1.4685    0.0000 C   0  0  0  0  0  0  0  0  0
   -3.3936    1.8810    0.0000 N   0  0  0  0  0  0  0  0  0
   -2.6792    1.4685    0.0000 C   0  0  0  0  0  0  0  0  0
   -2.6792    0.6435    0.0000 C   0  0  0  0  0  0  0  0  0
   -3.3936    2.7060    0.0000 C   0  0  0  0  0  0  0  0  0
   -2.6792    3.1185    0.0000 C   0  0  0  0  0  0  0  0  0
   -2.6792    3.9435    0.0000 C   0  0  0  0  0  0  0  0  0
   -1.9647    4.3560    0.0000 C   0  0  0  0  0  0  0  0  0
   -1.9647    5.1810    0.0000 C   0  0  0  0  0  0  0  0  0
   -1.2502    5.5935    0.0000 C   0  0  0  0  0  0  0  0  0
   -0.5358    5.1810    0.0000 C   0  0  0  0  0  0  0  0  0
   -0.5358    4.3560    0.0000 C   0  0  0  0  0  0  0  0  0
   -1.2502    3.9435    0.0000 C   0  0  0  0  0  0  0  0  0
  1  2  1  0  0  0  0
  1 15  1  0  0  0  0
  2  3  1  0  0  0  0
  2  9  1  0  0  0  0
  3  4  4  0  0  0  0
  3  8  4  0  0  0  0
  4  5  4  0  0  0  0
  5  6  4  0  0  0  0
  6  7  4  0  0  0  0
  7  8  4  0  0  0  0
  9 10  4  0  0  0  0
  9 14  4  0  0  0  0
 10 11  4  0  0  0  0
 11 12  4  0  0  0  0
 12 13  4  0  0  0  0
 13 14  4  0  0  0  0
 15 16  1  0  0  0  0
 16 17  1  0  0  0  0
 17 18  1  0  0  0  0
 17 22  1  0  0  0  0
 18 19  1  0  0  0  0
 19 20  1  0  0  0  0
 20 21  1  0  0  0  0
 20 23  1  0  0  0  0
 21 22  1  0  0  0  0
 23 24  1  0  0  0  0
 24 25  1  0  0  0  0
 25 26  1  0  0  0  0
 26 27  4  0  0  0  0
 26 31  4  0  0  0  0
 27 28  4  0  0  0  0
 28 29  4  0  0  0  0
 29 30  4  0  0  0  0
 30 31  4  0  0  0  0
M  END
>  <Name_Molregno>
35586

>  <Dopamine transporter>
7.14

>  <Norepinephrine transporter>
6.2

>  <Serotonin transporter>
5.68

$$$$
66613
  Marvin  02231216192D 0   1.00000     0.00000     0

 14 15  0  0  1  0  0  0  0  0999 V2000
   -3.5937   -0.7341    0.0000 O   0  0  0  0  0  0  0  0  0
   -2.8091   -0.9890    0.0000 C   0  0  0  0  0  0  0  0  0
   -2.0946   -0.5765    0.0000 C   0  0  0  0  0  0  0  0  0
   -1.3801   -0.9890    0.0000 C   0  0  0  0  0  0  0  0  0
   -1.3801   -1.8140    0.0000 C   0  0  0  0  0  0  0  0  0
   -2.0946   -2.2265    0.0000 C   0  0  0  0  0  0  0  0  0
   -2.8091   -1.8140    0.0000 C   0  0  0  0  0  0  0  0  0
   -3.5937   -2.0690    0.0000 O   0  0  0  0  0  0  0  0  0
   -4.0786   -1.4015    0.0000 C   0  0  0  0  0  0  0  0  0
   -0.6657   -0.5765    0.0000 C   0  0  0  0  0  0  0  0  0
   -0.6657    0.2485    0.0000 C   0  0  0  0  0  0  0  0  0
    0.0488    0.6610    0.0000 N   0  0  0  0  0  0  0  0  0
    0.0488    1.4860    0.0000 C   0  0  0  0  0  0  0  0  0
   -1.3801    0.6610    0.0000 C   0  0  0  0  0  0  0  0  0
  1  2  1  0  0  0  0
  1  9  1  0  0  0  0
  2  3  4  0  0  0  0
  2  7  4  0  0  0  0
  3  4  4  0  0  0  0
  4  5  4  0  0  0  0
  4 10  1  0  0  0  0
  5  6  4  0  0  0  0
  6  7  4  0  0  0  0
  7  8  1  0  0  0  0
  8  9  1  0  0  0  0
 10 11  1  0  0  0  0
 11 12  1  0  0  0  0
 11 14  1  0  0  0  0
 12 13  1  0  0  0  0
M  END
>  <Name_Molregno>
66613

>  <5-HT1A>
5

>  <5-HT1B>
5

>  <5-HT1D>
5

>  <5-HT1E>
5

>  <5-HT2A>
5

>  <5-HT3>
5

>  <5-HT5>
5

>  <5-HT6>
5

>  <5-HT7>
5

>  <Alpha-1A>
5

>  <Alpha-1B>
5

>  <Alpha-2A>
5.6

>  <Alpha-2B>
5.75

>  <Alpha-2C>
5.95

>  <Beta-1>
5

>  <Beta-2>
5

>  <DOPAMINE D1>
5

>  <DOPAMINE D2>
5

>  <DOPAMINE D3>
5

>  <DOPAMINE D4>
5

>  <DOPAMINE D5>
5

>  <Dopamine transporter>
5

>  <HISTAMINE H1>
5.67

>  <HISTAMINE H2>
5

>  <Muscarinic acetylcholine receptor M1>
5

>  <Muscarinic acetylcholine receptor M2>
5

>  <Muscarinic acetylcholine receptor M3>
5.73

>  <Muscarinic acetylcholine receptor M4>
5.08

>  <Muscarinic acetylcholine receptor M5>
5.2

>  <Norepinephrine transporter>
5

>  <Serotonin transporter>
7.24

$$$$
66727
  Marvin  02231216192D 0   1.00000     0.00000     0

 21 23  0  0  1  0  0  0  0  0999 V2000
    2.8026   -3.6293    0.0000 Cl  0  0  0  0  0  0  0  0  0
    3.2158   -2.9152    0.0000 C   0  0  0  0  0  0  0  0  0
    2.8040   -2.2003    0.0000 C   0  0  0  0  0  0  0  0  0
    3.2172   -1.4863    0.0000 C   0  0  0  0  0  0  0  0  0
    4.0422   -1.4871    0.0000 C   0  0  0  0  0  0  0  0  0
    4.4540   -2.2020    0.0000 C   0  0  0  0  0  0  0  0  0
    4.0408   -2.9160    0.0000 C   0  0  0  0  0  0  0  0  0
    4.4526   -3.6309    0.0000 Cl  0  0  0  0  0  0  0  0  0
    2.8054   -0.7714    0.0000 C   0  0  0  0  0  0  0  0  0
    2.6672    0.0460    0.0000 C   0  0  0  0  0  0  0  0  0
    1.7384    0.0305    0.0000 C   0  0  0  0  0  0  0  0  0
    1.1778    0.4704    0.0000 N   0  0  0  0  0  0  0  0  0
    1.3175   -0.3427    0.0000 C   0  0  0  0  0  0  0  0  0
    0.7976   -1.0550    0.0000 C   0  0  0  0  0  0  0  0  0
    1.4179   -0.6781    0.0000 C   0  0  0  0  0  0  0  0  0
    2.2892   -0.3427    0.0000 C   0  0  0  0  0  0  0  0  0
    2.0090   -1.1187    0.0000 C   0  0  0  0  0  0  0  0  0
    1.1969   -1.2640    0.0000 O   0  0  0  0  0  0  0  0  0
    0.9167   -2.0399    0.0000 C   0  0  0  0  0  0  0  0  0
    2.5409   -1.7493    0.0000 O   0  0  0  0  0  0  0  0  0
    0.7552    1.1789    0.0000 C   0  0  0  0  0  0  0  0  0
  1  2  1  0  0  0  0
  2  3  4  0  0  0  0
  2  7  4  0  0  0  0
  3  4  4  0  0  0  0
  4  5  4  0  0  0  0
  4  9  1  0  0  0  0
  5  6  4  0  0  0  0
  6  7  4  0  0  0  0
  7  8  1  0  0  0  0
  9 10  1  0  0  0  0
  9 16  1  0  0  0  0
 10 11  1  0  0  0  0
 11 12  1  0  0  0  0
 11 15  1  0  0  0  0
 12 13  1  0  0  0  0
 12 21  1  0  0  0  0
 13 14  1  0  0  0  0
 13 16  1  0  0  0  0
 14 15  1  0  0  0  0
 16 17  1  0  0  0  0
 17 18  1  0  0  0  0
 17 20  2  0  0  0  0
 18 19  1  0  0  0  0
M  END
>  <Name_Molregno>
66727

>  <Dopamine transporter>
9.17

>  <Norepinephrine transporter>
8.3

>  <Serotonin transporter>
7.92

$$$$
79963
  Marvin  02231216192D 0   1.00000     0.00000     0

 19 21  0  0  1  0  0  0  0  0999 V2000
    0.8216    1.0621    0.0000 O   0  0  0  0  0  0  0  0  0
    1.1075    0.2883    0.0000 C   0  0  0  0  0  0  0  0  0
    1.9206    0.1489    0.0000 O   0  0  0  0  0  0  0  0  0
    0.5802   -0.3463    0.0000 C   0  0  0  0  0  0  0  0  0
   -0.3486   -0.3618    0.0000 C   0  0  0  0  0  0  0  0  0
   -0.9092    0.0781    0.0000 N   0  0  0  0  0  0  0  0  0
   -0.7695   -0.7350    0.0000 C   0  0  0  0  0  0  0  0  0
    0.2022   -0.7350    0.0000 C   0  0  0  0  0  0  0  0  0
    0.7184   -1.1637    0.0000 C   0  0  0  0  0  0  0  0  0
    1.1302   -1.8786    0.0000 C   0  0  0  0  0  0  0  0  0
    1.9552   -1.8794    0.0000 C   0  0  0  0  0  0  0  0  0
    2.3670   -2.5943    0.0000 C   0  0  0  0  0  0  0  0  0
    1.9538   -3.3083    0.0000 C   0  0  0  0  0  0  0  0  0
    1.1288   -3.3075    0.0000 C   0  0  0  0  0  0  0  0  0
    0.7170   -2.5926    0.0000 C   0  0  0  0  0  0  0  0  0
   -1.2894   -1.4473    0.0000 C   0  0  0  0  0  0  0  0  0
   -0.6691   -1.0704    0.0000 C   0  0  0  0  0  0  0  0  0
   -1.3318    0.7867    0.0000 C   0  0  0  0  0  0  0  0  0
    1.3488    1.6967    0.0000 C   0  0  0  0  0  0  0  0  0
  1  2  1  0  0  0  0
  1 19  1  0  0  0  0
  2  3  2  0  0  0  0
  2  4  1  0  0  0  0
  4  5  1  0  0  0  0
  4  9  1  0  0  0  0
  5  6  1  0  0  0  0
  5 17  1  0  0  0  0
  6  7  1  0  0  0  0
  6 18  1  0  0  0  0
  7  8  1  0  0  0  0
  7 16  1  0  0  0  0
  8  9  1  0  0  0  0
  9 10  1  0  0  0  0
 10 11  4  0  0  0  0
 10 15  4  0  0  0  0
 11 12  4  0  0  0  0
 12 13  4  0  0  0  0
 13 14  4  0  0  0  0
 14 15  4  0  0  0  0
 16 17  1  0  0  0  0
M  END
>  <Name_Molregno>
79963

>  <Norepinephrine transporter>
6.36

>  <Serotonin transporter>
6.6

$$$$
85619
  Marvin  02231216192D 0   1.00000     0.00000     0

 29 33  0  0  0  0  0  0  0  0999 V2000
   -7.1641    5.2421    0.0000 O   0  0  0  0  0  0  0  0  0
   -7.9711    5.4136    0.0000 C   0  0  0  0  0  0  0  0  0
   -6.9092    4.4575    0.0000 C   0  0  0  0  0  0  0  0  0
   -6.1022    4.2859    0.0000 C   0  0  0  0  0  0  0  0  0
   -5.8473    3.5013    0.0000 C   0  0  0  0  0  0  0  0  0
   -5.0403    3.3298    0.0000 C   0  0  0  0  0  0  0  0  0
   -4.7853    2.5452    0.0000 C   0  0  0  0  0  0  0  0  0
   -5.3374    1.9321    0.0000 N   0  0  0  0  0  0  0  0  0
   -6.1444    2.1036    0.0000 C   0  0  0  0  0  0  0  0  0
   -6.3993    2.8882    0.0000 C   0  0  0  0  0  0  0  0  0
   -7.2063    3.0598    0.0000 C   0  0  0  0  0  0  0  0  0
   -7.4612    3.8444    0.0000 C   0  0  0  0  0  0  0  0  0
   -5.0824    1.1475    0.0000 C   0  0  0  0  0  0  0  0  0
   -4.2755    0.9759    0.0000 C   0  0  0  0  0  0  0  0  0
   -4.0205    0.1913    0.0000 C   0  0  0  0  0  0  0  0  0
   -4.5726   -0.4218    0.0000 C   0  0  0  0  0  0  0  0  0
   -5.3795   -0.2503    0.0000 C   0  0  0  0  0  0  0  0  0
   -5.6345    0.5344    0.0000 C   0  0  0  0  0  0  0  0  0
   -4.3176   -1.2064    0.0000 C   0  0  0  0  0  0  0  0  0
   -3.5330   -1.4613    0.0000 C   0  0  0  0  0  0  0  0  0
   -2.8185   -1.0488    0.0000 C   0  0  0  0  0  0  0  0  0
   -2.1041   -1.4613    0.0000 C   0  0  0  0  0  0  0  0  0
   -2.1041   -2.2863    0.0000 C   0  0  0  0  0  0  0  0  0
   -2.8185   -2.6988    0.0000 C   0  0  0  0  0  0  0  0  0
   -3.5330   -2.2863    0.0000 C   0  0  0  0  0  0  0  0  0
   -4.3176   -2.5413    0.0000 N   0  0  0  0  0  0  0  0  0
   -4.8025   -1.8738    0.0000 C   0  0  0  0  0  0  0  0  0
   -1.3896   -1.0488    0.0000 C   0  0  0  0  0  0  0  0  0
   -0.6751   -0.6363    0.0000 N   0  0  0  0  0  0  0  0  0
  1  2  1  0  0  0  0
  1  3  1  0  0  0  0
  3  4  4  0  0  0  0
  3 12  4  0  0  0  0
  4  5  4  0  0  0  0
  5  6  1  0  0  0  0
  5 10  4  0  0  0  0
  6  7  1  0  0  0  0
  7  8  1  0  0  0  0
  8  9  1  0  0  0  0
  8 13  1  0  0  0  0
  9 10  1  0  0  0  0
 10 11  4  0  0  0  0
 11 12  4  0  0  0  0
 13 14  1  0  0  0  0
 13 18  1  0  0  0  0
 14 15  1  0  0  0  0
 15 16  1  0  0  0  0
 16 17  1  0  0  0  0
 16 19  1  0  0  0  0
 17 18  1  0  0  0  0
 19 20  4  0  0  0  0
 19 27  4  0  0  0  0
 20 21  4  0  0  0  0
 20 25  4  0  0  0  0
 21 22  4  0  0  0  0
 22 23  4  0  0  0  0
 22 28  1  0  0  0  0
 23 24  4  0  0  0  0
 24 25  4  0  0  0  0
 25 26  4  0  0  0  0
 26 27  4  0  0  0  0
 28 29  3  0  0  0  0
M  STY  1   1 DAT
M  SAL   1  1  26
M  SDT   1 MRV_IMPLICIT_H                                        
M  SDD   1     0.0000    0.0000    DR    ALL  0       0  
M  SED   1 IMPL_H1
M  END
>  <Name_Molregno>
85619

>  <Dopamine transporter>
6.39

>  <Norepinephrine transporter>
6.5

>  <Serotonin transporter>
7.15

$$$$
85717
  Marvin  02231216192D 0   1.00000     0.00000     0

 27 31  0  0  0  0  0  0  0  0999 V2000
   -5.1176    3.1987    0.0000 N   0  0  0  0  0  0  0  0  0
   -4.3107    3.0272    0.0000 C   0  0  0  0  0  0  0  0  0
   -4.2244    2.2067    0.0000 C   0  0  0  0  0  0  0  0  0
   -4.9781    1.8712    0.0000 C   0  0  0  0  0  0  0  0  0
   -5.2330    1.0865    0.0000 C   0  0  0  0  0  0  0  0  0
   -6.0400    0.9150    0.0000 C   0  0  0  0  0  0  0  0  0
   -6.5921    1.5281    0.0000 C   0  0  0  0  0  0  0  0  0
   -6.3371    2.3127    0.0000 C   0  0  0  0  0  0  0  0  0
   -5.5301    2.4842    0.0000 C   0  0  0  0  0  0  0  0  0
   -6.2950    0.1304    0.0000 C   0  0  0  0  0  0  0  0  0
   -6.5499   -0.6542    0.0000 N   0  0  0  0  0  0  0  0  0
   -3.5100    1.7942    0.0000 C   0  0  0  0  0  0  0  0  0
   -2.7955    2.2067    0.0000 C   0  0  0  0  0  0  0  0  0
   -2.0810    1.7942    0.0000 C   0  0  0  0  0  0  0  0  0
   -2.0810    0.9692    0.0000 C   0  0  0  0  0  0  0  0  0
   -1.3666    0.5567    0.0000 N   0  0  0  0  0  0  0  0  0
   -1.3666   -0.2683    0.0000 C   0  0  0  0  0  0  0  0  0
   -0.6521   -0.6808    0.0000 C   0  0  0  0  0  0  0  0  0
    0.0624   -0.2683    0.0000 C   0  0  0  0  0  0  0  0  0
    0.0624    0.5567    0.0000 C   0  0  0  0  0  0  0  0  0
   -0.6521    0.9692    0.0000 C   0  0  0  0  0  0  0  0  0
    0.7769    0.9692    0.0000 C   0  0  0  0  0  0  0  0  0
    1.4913    0.5567    0.0000 C   0  0  0  0  0  0  0  0  0
    1.4913   -0.2683    0.0000 C   0  0  0  0  0  0  0  0  0
    0.7769   -0.6808    0.0000 C   0  0  0  0  0  0  0  0  0
   -2.7955    0.5567    0.0000 C   0  0  0  0  0  0  0  0  0
   -3.5100    0.9692    0.0000 C   0  0  0  0  0  0  0  0  0
  1  2  4  0  0  0  0
  1  9  4  0  0  0  0
  2  3  4  0  0  0  0
  3  4  4  0  0  0  0
  3 12  1  0  0  0  0
  4  5  4  0  0  0  0
  4  9  4  0  0  0  0
  5  6  4  0  0  0  0
  6  7  4  0  0  0  0
  6 10  1  0  0  0  0
  7  8  4  0  0  0  0
  8  9  4  0  0  0  0
 10 11  3  0  0  0  0
 12 13  1  0  0  0  0
 12 27  1  0  0  0  0
 13 14  1  0  0  0  0
 14 15  1  0  0  0  0
 15 16  1  0  0  0  0
 15 26  1  0  0  0  0
 16 17  1  0  0  0  0
 16 21  1  0  0  0  0
 17 18  1  0  0  0  0
 18 19  1  0  0  0  0
 19 20  4  0  0  0  0
 19 25  4  0  0  0  0
 20 21  1  0  0  0  0
 20 22  4  0  0  0  0
 22 23  4  0  0  0  0
 23 24  4  0  0  0  0
 24 25  4  0  0  0  0
 26 27  1  0  0  0  0
M  STY  1   1 DAT
M  SAL   1  1   1
M  SDT   1 MRV_IMPLICIT_H                                        
M  SDD   1     0.0000    0.0000    DR    ALL  0       0  
M  SED   1 IMPL_H1
M  END
>  <Name_Molregno>
85717

>  <Dopamine transporter>
6.44

>  <Norepinephrine transporter>
6.29

>  <Serotonin transporter>
7.16

$$$$
88815
  Marvin  02231216192D 0   1.00000     0.00000     0

 14 15  0  0  1  0  0  0  0  0999 V2000
   -3.2072   -0.1654    0.0000 S   0  0  0  0  0  0  0  0  0
   -2.4226   -0.4204    0.0000 C   0  0  0  0  0  0  0  0  0
   -1.7081   -0.0079    0.0000 C   0  0  0  0  0  0  0  0  0
   -0.9937   -0.4204    0.0000 C   0  0  0  0  0  0  0  0  0
   -0.2792   -0.0079    0.0000 N   0  0  0  0  0  0  0  0  0
    0.4353   -0.4204    0.0000 C   0  0  0  0  0  0  0  0  0
    1.1498   -0.0079    0.0000 C   0  0  0  0  0  0  0  0  0
    1.8642   -0.4204    0.0000 C   0  0  0  0  0  0  0  0  0
   -0.9937   -1.2454    0.0000 C   0  0  0  0  0  0  0  0  0
   -1.7081   -1.6579    0.0000 C   0  0  0  0  0  0  0  0  0
   -2.4226   -1.2454    0.0000 C   0  0  0  0  0  0  0  0  0
   -3.2072   -1.5003    0.0000 N   0  0  0  0  0  0  0  0  0
   -3.6921   -0.8329    0.0000 C   0  0  0  0  0  0  0  0  0
   -4.5171   -0.8329    0.0000 N   0  0  0  0  0  0  0  0  0
  1  2  4  0  0  0  0
  1 13  4  0  0  0  0
  2  3  1  0  0  0  0
  2 11  4  0  0  0  0
  3  4  1  0  0  0  0
  4  5  1  0  0  0  0
  4  9  1  0  0  0  0
  5  6  1  0  0  0  0
  6  7  1  0  0  0  0
  7  8  1  0  0  0  0
  9 10  1  0  0  0  0
 10 11  1  0  0  0  0
 11 12  4  0  0  0  0
 12 13  4  0  0  0  0
 13 14  1  0  0  0  0
M  END
>  <Name_Molregno>
88815

>  <5-HT1A>
5.67

>  <5-HT1B>
5.26

>  <5-HT1D>
5.39

>  <5-HT1E>
5

>  <5-HT2A>
5

>  <5-HT2C>
5

>  <5-HT3>
5

>  <5-HT5>
5

>  <5-HT6>
5

>  <5-HT7>
5.93

>  <Alpha-1A>
5

>  <Alpha-1B>
5

>  <Alpha-2A>
6.44

>  <Alpha-2B>
6.68

>  <Alpha-2C>
6.14

>  <Beta-1>
5

>  <Beta-2>
5

>  <DOPAMINE D1>
5

>  <DOPAMINE D2>
6.55

>  <DOPAMINE D3>
8.51

>  <DOPAMINE D4>
7.4

>  <DOPAMINE D5>
5

>  <Dopamine transporter>
5

>  <HISTAMINE H1>
5

>  <HISTAMINE H2>
5.57

>  <HISTAMINE H4>
5

>  <Muscarinic acetylcholine receptor M1>
5

>  <Muscarinic acetylcholine receptor M2>
5

>  <Muscarinic acetylcholine receptor M3>
5

>  <Muscarinic acetylcholine receptor M4>
5

>  <Muscarinic acetylcholine receptor M5>
5

>  <Norepinephrine transporter>
5

>  <Serotonin transporter>
5

$$$$
104735
  Marvin  02231216192D 0   1.00000     0.00000     0

 33 36  0  0  1  0  0  0  0  0999 V2000
    8.9199    6.4987    0.0000 F   0  0  0  0  0  0  0  0  0
    8.9199    5.6737    0.0000 C   0  0  0  0  0  0  0  0  0
    9.6344    5.2612    0.0000 C   0  0  0  0  0  0  0  0  0
    9.6344    4.4362    0.0000 C   0  0  0  0  0  0  0  0  0
    8.9199    4.0237    0.0000 C   0  0  0  0  0  0  0  0  0
    8.2054    4.4362    0.0000 C   0  0  0  0  0  0  0  0  0
    8.2054    5.2612    0.0000 C   0  0  0  0  0  0  0  0  0
    8.9199    3.1987    0.0000 C   0  0  0  0  0  0  0  0  0
    8.2054    2.7862    0.0000 C   0  0  0  0  0  0  0  0  0
    8.2054    1.9612    0.0000 N   0  0  0  0  0  0  0  0  0
    7.4910    1.5487    0.0000 C   0  0  0  0  0  0  0  0  0
    7.4910    0.7237    0.0000 C   0  0  0  0  0  0  0  0  0
    8.2054    0.3112    0.0000 C   0  0  0  0  0  0  0  0  0
    8.2054   -0.5138    0.0000 C   0  0  0  0  0  0  0  0  0
    7.4910   -0.9263    0.0000 C   0  0  0  0  0  0  0  0  0
    6.7765   -0.5138    0.0000 N   0  0  0  0  0  0  0  0  0
    6.7765    0.3112    0.0000 C   0  0  0  0  0  0  0  0  0
    6.0620   -0.9263    0.0000 C   0  0  0  0  0  0  0  0  0
    6.0620   -1.7513    0.0000 C   0  0  0  0  0  0  0  0  0
    5.3476   -2.1638    0.0000 O   0  0  0  0  0  0  0  0  0
    5.3476   -2.9888    0.0000 C   0  0  0  0  0  0  0  0  0
    4.6331   -3.4013    0.0000 C   0  0  0  0  0  0  0  0  0
    4.6331   -4.2263    0.0000 C   0  0  0  0  0  0  0  0  0
    3.9186   -4.6388    0.0000 C   0  0  0  0  0  0  0  0  0
    3.2041   -4.2263    0.0000 C   0  0  0  0  0  0  0  0  0
    3.2041   -3.4013    0.0000 C   0  0  0  0  0  0  0  0  0
    3.9186   -2.9888    0.0000 C   0  0  0  0  0  0  0  0  0
    6.0620   -3.4013    0.0000 C   0  0  0  0  0  0  0  0  0
    6.7765   -2.9888    0.0000 C   0  0  0  0  0  0  0  0  0
    7.4910   -3.4013    0.0000 C   0  0  0  0  0  0  0  0  0
    7.4910   -4.2263    0.0000 C   0  0  0  0  0  0  0  0  0
    6.7765   -4.6388    0.0000 C   0  0  0  0  0  0  0  0  0
    6.0620   -4.2263    0.0000 C   0  0  0  0  0  0  0  0  0
  1  2  1  0  0  0  0
  2  3  4  0  0  0  0
  2  7  4  0  0  0  0
  3  4  4  0  0  0  0
  4  5  4  0  0  0  0
  5  6  4  0  0  0  0
  5  8  1  0  0  0  0
  6  7  4  0  0  0  0
  8  9  1  0  0  0  0
  9 10  1  0  0  0  0
 10 11  1  0  0  0  0
 11 12  1  0  0  0  0
 12 13  1  0  0  0  0
 12 17  1  0  0  0  0
 13 14  1  0  0  0  0
 14 15  1  0  0  0  0
 15 16  1  0  0  0  0
 16 17  1  0  0  0  0
 16 18  1  0  0  0  0
 18 19  1  0  0  0  0
 19 20  1  0  0  0  0
 20 21  1  0  0  0  0
 21 22  1  0  0  0  0
 21 28  1  0  0  0  0
 22 23  4  0  0  0  0
 22 27  4  0  0  0  0
 23 24  4  0  0  0  0
 24 25  4  0  0  0  0
 25 26  4  0  0  0  0
 26 27  4  0  0  0  0
 28 29  4  0  0  0  0
 28 33  4  0  0  0  0
 29 30  4  0  0  0  0
 30 31  4  0  0  0  0
 31 32  4  0  0  0  0
 32 33  4  0  0  0  0
M  END
>  <Name_Molregno>
104735

>  <Dopamine transporter>
7.06

>  <Norepinephrine transporter>
6.72

>  <Serotonin transporter>
6.05

$$$$
105064
  Marvin  02231216192D 0   1.00000     0.00000     0

 33 36  0  0  1  0  0  0  0  0999 V2000
   -4.9549    0.2854    0.0000 O   0  0  0  0  0  0  0  0  0
   -5.6693    0.6979    0.0000 C   0  0  0  0  0  0  0  0  0
   -6.3838    0.2854    0.0000 C   0  0  0  0  0  0  0  0  0
   -6.3838   -0.5396    0.0000 C   0  0  0  0  0  0  0  0  0
   -7.0983   -0.9521    0.0000 C   0  0  0  0  0  0  0  0  0
   -7.8127   -0.5396    0.0000 C   0  0  0  0  0  0  0  0  0
   -7.8127    0.2854    0.0000 C   0  0  0  0  0  0  0  0  0
   -7.0983    0.6979    0.0000 C   0  0  0  0  0  0  0  0  0
   -5.6693    1.5229    0.0000 C   0  0  0  0  0  0  0  0  0
   -6.3838    1.9354    0.0000 C   0  0  0  0  0  0  0  0  0
   -6.3838    2.7604    0.0000 C   0  0  0  0  0  0  0  0  0
   -5.6693    3.1729    0.0000 C   0  0  0  0  0  0  0  0  0
   -4.9549    2.7604    0.0000 C   0  0  0  0  0  0  0  0  0
   -4.9549    1.9354    0.0000 C   0  0  0  0  0  0  0  0  0
   -4.2404    0.6979    0.0000 C   0  0  0  0  0  0  0  0  0
   -3.5259    0.2854    0.0000 C   0  0  0  0  0  0  0  0  0
   -2.8114    0.6979    0.0000 N   0  0  0  0  0  0  0  0  0
   -2.0970    0.2854    0.0000 C   0  0  0  0  0  0  0  0  0
   -1.3825    0.6979    0.0000 C   0  0  0  0  0  0  0  0  0
   -1.3825    1.5229    0.0000 C   0  0  0  0  0  0  0  0  0
   -0.6680    1.9354    0.0000 C   0  0  0  0  0  0  0  0  0
    0.0464    1.5229    0.0000 C   0  0  0  0  0  0  0  0  0
    0.0464    0.6979    0.0000 N   0  0  0  0  0  0  0  0  0
   -0.6680    0.2854    0.0000 C   0  0  0  0  0  0  0  0  0
    0.7609    0.2854    0.0000 C   0  0  0  0  0  0  0  0  0
    0.7609   -0.5396    0.0000 C   0  0  0  0  0  0  0  0  0
    1.4754   -0.9521    0.0000 C   0  0  0  0  0  0  0  0  0
    2.1899   -0.5396    0.0000 C   0  0  0  0  0  0  0  0  0
    2.1899    0.2854    0.0000 C   0  0  0  0  0  0  0  0  0
    2.9043    0.6979    0.0000 C   0  0  0  0  0  0  0  0  0
    3.6188    0.2854    0.0000 C   0  0  0  0  0  0  0  0  0
    3.6188   -0.5396    0.0000 C   0  0  0  0  0  0  0  0  0
    2.9043   -0.9521    0.0000 C   0  0  0  0  0  0  0  0  0
  1  2  1  0  0  0  0
  1 15  1  0  0  0  0
  2  3  1  0  0  0  0
  2  9  1  0  0  0  0
  3  4  4  0  0  0  0
  3  8  4  0  0  0  0
  4  5  4  0  0  0  0
  5  6  4  0  0  0  0
  6  7  4  0  0  0  0
  7  8  4  0  0  0  0
  9 10  4  0  0  0  0
  9 14  4  0  0  0  0
 10 11  4  0  0  0  0
 11 12  4  0  0  0  0
 12 13  4  0  0  0  0
 13 14  4  0  0  0  0
 15 16  1  0  0  0  0
 16 17  1  0  0  0  0
 17 18  1  0  0  0  0
 18 19  1  0  0  0  0
 19 20  1  0  0  0  0
 19 24  1  0  0  0  0
 20 21  1  0  0  0  0
 21 22  1  0  0  0  0
 22 23  1  0  0  0  0
 23 24  1  0  0  0  0
 23 25  1  0  0  0  0
 25 26  1  0  0  0  0
 26 27  1  0  0  0  0
 27 28  1  0  0  0  0
 28 29  4  0  0  0  0
 28 33  4  0  0  0  0
 29 30  4  0  0  0  0
 30 31  4  0  0  0  0
 31 32  4  0  0  0  0
 32 33  4  0  0  0  0
M  END
>  <Name_Molregno>
105064

>  <Dopamine transporter>
7.74

>  <Norepinephrine transporter>
7.64

>  <Serotonin transporter>
6.68

$$$$
105104
  Marvin  02231216192D 0   1.00000     0.00000     0

 33 36  0  0  0  0  0  0  0  0999 V2000
   -4.2714    0.3011    0.0000 O   0  0  0  0  0  0  0  0  0
   -4.9859    0.7136    0.0000 C   0  0  0  0  0  0  0  0  0
   -5.7003    0.3011    0.0000 C   0  0  0  0  0  0  0  0  0
   -5.7003   -0.5239    0.0000 C   0  0  0  0  0  0  0  0  0
   -6.4148   -0.9364    0.0000 C   0  0  0  0  0  0  0  0  0
   -7.1293   -0.5239    0.0000 C   0  0  0  0  0  0  0  0  0
   -7.1293    0.3011    0.0000 C   0  0  0  0  0  0  0  0  0
   -6.4148    0.7136    0.0000 C   0  0  0  0  0  0  0  0  0
   -4.9859    1.5386    0.0000 C   0  0  0  0  0  0  0  0  0
   -5.7003    1.9511    0.0000 C   0  0  0  0  0  0  0  0  0
   -5.7003    2.7761    0.0000 C   0  0  0  0  0  0  0  0  0
   -4.9859    3.1886    0.0000 C   0  0  0  0  0  0  0  0  0
   -4.2714    2.7761    0.0000 C   0  0  0  0  0  0  0  0  0
   -4.2714    1.9511    0.0000 C   0  0  0  0  0  0  0  0  0
   -3.5569    0.7136    0.0000 C   0  0  0  0  0  0  0  0  0
   -2.8425    0.3011    0.0000 C   0  0  0  0  0  0  0  0  0
   -2.1280    0.7136    0.0000 N   0  0  0  0  0  0  0  0  0
   -2.1280    1.5386    0.0000 C   0  0  0  0  0  0  0  0  0
   -1.4135    0.3011    0.0000 C   0  0  0  0  0  0  0  0  0
   -0.6990    0.7136    0.0000 C   0  0  0  0  0  0  0  0  0
    0.0154    0.3011    0.0000 C   0  0  0  0  0  0  0  0  0
    0.0154   -0.5239    0.0000 N   0  0  0  0  0  0  0  0  0
   -0.6990   -0.9364    0.0000 C   0  0  0  0  0  0  0  0  0
   -1.4135   -0.5239    0.0000 C   0  0  0  0  0  0  0  0  0
    0.7299   -0.9364    0.0000 C   0  0  0  0  0  0  0  0  0
    0.7299   -1.7614    0.0000 C   0  0  0  0  0  0  0  0  0
    1.4444   -2.1739    0.0000 C   0  0  0  0  0  0  0  0  0
    2.1588   -1.7614    0.0000 C   0  0  0  0  0  0  0  0  0
    2.1588   -0.9364    0.0000 C   0  0  0  0  0  0  0  0  0
    2.8733   -0.5239    0.0000 C   0  0  0  0  0  0  0  0  0
    3.5878   -0.9364    0.0000 C   0  0  0  0  0  0  0  0  0
    3.5878   -1.7614    0.0000 C   0  0  0  0  0  0  0  0  0
    2.8733   -2.1739    0.0000 C   0  0  0  0  0  0  0  0  0
  1  2  1  0  0  0  0
  1 15  1  0  0  0  0
  2  3  1  0  0  0  0
  2  9  1  0  0  0  0
  3  4  4  0  0  0  0
  3  8  4  0  0  0  0
  4  5  4  0  0  0  0
  5  6  4  0  0  0  0
  6  7  4  0  0  0  0
  7  8  4  0  0  0  0
  9 10  4  0  0  0  0
  9 14  4  0  0  0  0
 10 11  4  0  0  0  0
 11 12  4  0  0  0  0
 12 13  4  0  0  0  0
 13 14  4  0  0  0  0
 15 16  1  0  0  0  0
 16 17  1  0  0  0  0
 17 18  1  0  0  0  0
 17 19  1  0  0  0  0
 19 20  1  0  0  0  0
 19 24  1  0  0  0  0
 20 21  1  0  0  0  0
 21 22  1  0  0  0  0
 22 23  1  0  0  0  0
 22 25  1  0  0  0  0
 23 24  1  0  0  0  0
 25 26  1  0  0  0  0
 26 27  1  0  0  0  0
 27 28  1  0  0  0  0
 28 29  4  0  0  0  0
 28 33  4  0  0  0  0
 29 30  4  0  0  0  0
 30 31  4  0  0  0  0
 31 32  4  0  0  0  0
 32 33  4  0  0  0  0
M  END
>  <Name_Molregno>
105104

>  <Dopamine transporter>
7.52

>  <Norepinephrine transporter>
7.54

>  <Serotonin transporter>
5.85

$$$$
105523
  Marvin  02231216192D 0   1.00000     0.00000     0

 34 37  0  0  1  0  0  0  0  0999 V2000
    8.5340    8.6041    0.0000 F   0  0  0  0  0  0  0  0  0
    8.5340    7.7791    0.0000 C   0  0  0  0  0  0  0  0  0
    9.2485    7.3666    0.0000 C   0  0  0  0  0  0  0  0  0
    9.2485    6.5416    0.0000 C   0  0  0  0  0  0  0  0  0
    8.5340    6.1291    0.0000 C   0  0  0  0  0  0  0  0  0
    7.8195    6.5416    0.0000 C   0  0  0  0  0  0  0  0  0
    7.8195    7.3666    0.0000 C   0  0  0  0  0  0  0  0  0
    8.5340    5.3041    0.0000 C   0  0  0  0  0  0  0  0  0
    7.8195    4.8916    0.0000 C   0  0  0  0  0  0  0  0  0
    7.8195    4.0666    0.0000 N   0  0  0  0  0  0  0  0  0
    7.1051    3.6541    0.0000 C   0  0  0  0  0  0  0  0  0
    7.1051    2.8291    0.0000 C   0  0  0  0  0  0  0  0  0
    7.8195    2.4166    0.0000 C   0  0  0  0  0  0  0  0  0
    7.8195    1.5916    0.0000 C   0  0  0  0  0  0  0  0  0
    7.1051    1.1791    0.0000 C   0  0  0  0  0  0  0  0  0
    6.3906    1.5916    0.0000 N   0  0  0  0  0  0  0  0  0
    6.3906    2.4166    0.0000 C   0  0  0  0  0  0  0  0  0
    5.6761    1.1791    0.0000 C   0  0  0  0  0  0  0  0  0
    5.6761    0.3541    0.0000 C   0  0  0  0  0  0  0  0  0
    4.9617   -0.0584    0.0000 O   0  0  0  0  0  0  0  0  0
    4.9617   -0.8834    0.0000 C   0  0  0  0  0  0  0  0  0
    4.2472   -1.2959    0.0000 C   0  0  0  0  0  0  0  0  0
    4.2472   -2.1209    0.0000 C   0  0  0  0  0  0  0  0  0
    3.5327   -2.5334    0.0000 C   0  0  0  0  0  0  0  0  0
    2.8183   -2.1209    0.0000 C   0  0  0  0  0  0  0  0  0
    2.8183   -1.2959    0.0000 C   0  0  0  0  0  0  0  0  0
    3.5327   -0.8834    0.0000 C   0  0  0  0  0  0  0  0  0
    5.6761   -1.2959    0.0000 C   0  0  0  0  0  0  0  0  0
    6.3906   -0.8834    0.0000 C   0  0  0  0  0  0  0  0  0
    7.1051   -1.2959    0.0000 C   0  0  0  0  0  0  0  0  0
    7.1051   -2.1209    0.0000 C   0  0  0  0  0  0  0  0  0
    6.3906   -2.5334    0.0000 C   0  0  0  0  0  0  0  0  0
    5.6761   -2.1209    0.0000 C   0  0  0  0  0  0  0  0  0
    8.5340    3.6541    0.0000 C   0  0  0  0  0  0  0  0  0
  1  2  1  0  0  0  0
  2  3  4  0  0  0  0
  2  7  4  0  0  0  0
  3  4  4  0  0  0  0
  4  5  4  0  0  0  0
  5  6  4  0  0  0  0
  5  8  1  0  0  0  0
  6  7  4  0  0  0  0
  8  9  1  0  0  0  0
  9 10  1  0  0  0  0
 10 11  1  0  0  0  0
 10 34  1  0  0  0  0
 11 12  1  0  0  0  0
 12 13  1  0  0  0  0
 12 17  1  0  0  0  0
 13 14  1  0  0  0  0
 14 15  1  0  0  0  0
 15 16  1  0  0  0  0
 16 17  1  0  0  0  0
 16 18  1  0  0  0  0
 18 19  1  0  0  0  0
 19 20  1  0  0  0  0
 20 21  1  0  0  0  0
 21 22  1  0  0  0  0
 21 28  1  0  0  0  0
 22 23  4  0  0  0  0
 22 27  4  0  0  0  0
 23 24  4  0  0  0  0
 24 25  4  0  0  0  0
 25 26  4  0  0  0  0
 26 27  4  0  0  0  0
 28 29  4  0  0  0  0
 28 33  4  0  0  0  0
 29 30  4  0  0  0  0
 30 31  4  0  0  0  0
 31 32  4  0  0  0  0
 32 33  4  0  0  0  0
M  END
>  <Name_Molregno>
105523

>  <Dopamine transporter>
7.05

>  <Norepinephrine transporter>
6.96

>  <Serotonin transporter>
6.28

$$$$
105555
  Marvin  02231216192D 0   1.00000     0.00000     0

 33 36  0  0  1  0  0  0  0  0999 V2000
    3.2738    2.5679    0.0000 F   0  0  0  0  0  0  0  0  0
    3.2738    1.7429    0.0000 C   0  0  0  0  0  0  0  0  0
    3.9883    1.3304    0.0000 C   0  0  0  0  0  0  0  0  0
    3.9883    0.5054    0.0000 C   0  0  0  0  0  0  0  0  0
    3.2738    0.0929    0.0000 C   0  0  0  0  0  0  0  0  0
    2.5593    0.5054    0.0000 C   0  0  0  0  0  0  0  0  0
    2.5593    1.3304    0.0000 C   0  0  0  0  0  0  0  0  0
    3.2738   -0.7321    0.0000 C   0  0  0  0  0  0  0  0  0
    3.9883   -1.1446    0.0000 C   0  0  0  0  0  0  0  0  0
    3.9883   -1.9696    0.0000 N   0  0  0  0  0  0  0  0  0
    4.7027   -2.3821    0.0000 C   0  0  0  0  0  0  0  0  0
    4.7027   -3.2071    0.0000 C   0  0  0  0  0  0  0  0  0
    3.9883   -3.6196    0.0000 C   0  0  0  0  0  0  0  0  0
    3.2738   -3.2071    0.0000 C   0  0  0  0  0  0  0  0  0
    3.2738   -2.3821    0.0000 C   0  0  0  0  0  0  0  0  0
    5.4172   -3.6196    0.0000 C   0  0  0  0  0  0  0  0  0
    6.1317   -3.2071    0.0000 N   0  0  0  0  0  0  0  0  0
    6.8461   -3.6196    0.0000 C   0  0  0  0  0  0  0  0  0
    7.5606   -3.2071    0.0000 C   0  0  0  0  0  0  0  0  0
    8.2751   -3.6196    0.0000 O   0  0  0  0  0  0  0  0  0
    8.9896   -3.2071    0.0000 C   0  0  0  0  0  0  0  0  0
    9.7040   -3.6196    0.0000 C   0  0  0  0  0  0  0  0  0
   10.4185   -3.2071    0.0000 C   0  0  0  0  0  0  0  0  0
   11.1330   -3.6196    0.0000 C   0  0  0  0  0  0  0  0  0
   11.1330   -4.4446    0.0000 C   0  0  0  0  0  0  0  0  0
   10.4185   -4.8571    0.0000 C   0  0  0  0  0  0  0  0  0
    9.7040   -4.4446    0.0000 C   0  0  0  0  0  0  0  0  0
    8.9896   -2.3821    0.0000 C   0  0  0  0  0  0  0  0  0
    8.2751   -1.9696    0.0000 C   0  0  0  0  0  0  0  0  0
    8.2751   -1.1446    0.0000 C   0  0  0  0  0  0  0  0  0
    8.9896   -0.7321    0.0000 C   0  0  0  0  0  0  0  0  0
    9.7040   -1.1446    0.0000 C   0  0  0  0  0  0  0  0  0
    9.7040   -1.9696    0.0000 C   0  0  0  0  0  0  0  0  0
  1  2  1  0  0  0  0
  2  3  4  0  0  0  0
  2  7  4  0  0  0  0
  3  4  4  0  0  0  0
  4  5  4  0  0  0  0
  5  6  4  0  0  0  0
  5  8  1  0  0  0  0
  6  7  4  0  0  0  0
  8  9  1  0  0  0  0
  9 10  1  0  0  0  0
 10 11  1  0  0  0  0
 10 15  1  0  0  0  0
 11 12  1  0  0  0  0
 12 13  1  0  0  0  0
 12 16  1  0  0  0  0
 13 14  1  0  0  0  0
 14 15  1  0  0  0  0
 16 17  1  0  0  0  0
 17 18  1  0  0  0  0
 18 19  1  0  0  0  0
 19 20  1  0  0  0  0
 20 21  1  0  0  0  0
 21 22  1  0  0  0  0
 21 28  1  0  0  0  0
 22 23  4  0  0  0  0
 22 27  4  0  0  0  0
 23 24  4  0  0  0  0
 24 25  4  0  0  0  0
 25 26  4  0  0  0  0
 26 27  4  0  0  0  0
 28 29  4  0  0  0  0
 28 33  4  0  0  0  0
 29 30  4  0  0  0  0
 30 31  4  0  0  0  0
 31 32  4  0  0  0  0
 32 33  4  0  0  0  0
M  END
>  <Name_Molregno>
105555

>  <Dopamine transporter>
7

>  <Norepinephrine transporter>
6.82

>  <Serotonin transporter>
6.46

$$$$
105753
  Marvin  02231216192D 0   1.00000     0.00000     0

 32 35  0  0  0  0  0  0  0  0999 V2000
   -2.1813   -2.6053    0.0000 O   0  0  0  0  0  0  0  0  0
   -1.4668   -3.0178    0.0000 C   0  0  0  0  0  0  0  0  0
   -1.4668   -3.8428    0.0000 C   0  0  0  0  0  0  0  0  0
   -0.7523   -4.2553    0.0000 C   0  0  0  0  0  0  0  0  0
   -0.7523   -5.0803    0.0000 C   0  0  0  0  0  0  0  0  0
   -1.4668   -5.4928    0.0000 C   0  0  0  0  0  0  0  0  0
   -2.1813   -5.0803    0.0000 C   0  0  0  0  0  0  0  0  0
   -2.1813   -4.2553    0.0000 C   0  0  0  0  0  0  0  0  0
   -0.7523   -2.6053    0.0000 C   0  0  0  0  0  0  0  0  0
   -0.7523   -1.7803    0.0000 C   0  0  0  0  0  0  0  0  0
   -0.0379   -1.3678    0.0000 C   0  0  0  0  0  0  0  0  0
    0.6766   -1.7803    0.0000 C   0  0  0  0  0  0  0  0  0
    0.6766   -2.6053    0.0000 C   0  0  0  0  0  0  0  0  0
   -0.0379   -3.0178    0.0000 C   0  0  0  0  0  0  0  0  0
   -2.1813   -1.7803    0.0000 C   0  0  0  0  0  0  0  0  0
   -2.8958   -1.3678    0.0000 C   0  0  0  0  0  0  0  0  0
   -2.8958   -0.5428    0.0000 N   0  0  0  0  0  0  0  0  0
   -3.6102   -0.1303    0.0000 C   0  0  0  0  0  0  0  0  0
   -3.6102    0.6947    0.0000 C   0  0  0  0  0  0  0  0  0
   -2.8958    1.1072    0.0000 C   0  0  0  0  0  0  0  0  0
   -2.8958    1.9322    0.0000 N   0  0  0  0  0  0  0  0  0
   -3.6102    2.3447    0.0000 C   0  0  0  0  0  0  0  0  0
   -3.6102    3.1697    0.0000 C   0  0  0  0  0  0  0  0  0
   -4.3247    3.5822    0.0000 C   0  0  0  0  0  0  0  0  0
   -4.3247    4.4072    0.0000 C   0  0  0  0  0  0  0  0  0
   -5.0392    4.8197    0.0000 C   0  0  0  0  0  0  0  0  0
   -5.0392    5.6447    0.0000 C   0  0  0  0  0  0  0  0  0
   -4.3247    6.0572    0.0000 C   0  0  0  0  0  0  0  0  0
   -3.6102    5.6447    0.0000 C   0  0  0  0  0  0  0  0  0
   -3.6102    4.8197    0.0000 C   0  0  0  0  0  0  0  0  0
   -2.1813    0.6947    0.0000 C   0  0  0  0  0  0  0  0  0
   -2.1813   -0.1303    0.0000 C   0  0  0  0  0  0  0  0  0
  1  2  1  0  0  0  0
  1 15  1  0  0  0  0
  2  3  1  0  0  0  0
  2  9  1  0  0  0  0
  3  4  4  0  0  0  0
  3  8  4  0  0  0  0
  4  5  4  0  0  0  0
  5  6  4  0  0  0  0
  6  7  4  0  0  0  0
  7  8  4  0  0  0  0
  9 10  4  0  0  0  0
  9 14  4  0  0  0  0
 10 11  4  0  0  0  0
 11 12  4  0  0  0  0
 12 13  4  0  0  0  0
 13 14  4  0  0  0  0
 15 16  1  0  0  0  0
 16 17  1  0  0  0  0
 17 18  1  0  0  0  0
 17 32  1  0  0  0  0
 18 19  1  0  0  0  0
 19 20  1  0  0  0  0
 20 21  1  0  0  0  0
 20 31  1  0  0  0  0
 21 22  1  0  0  0  0
 22 23  1  0  0  0  0
 23 24  1  0  0  0  0
 24 25  1  0  0  0  0
 25 26  4  0  0  0  0
 25 30  4  0  0  0  0
 26 27  4  0  0  0  0
 27 28  4  0  0  0  0
 28 29  4  0  0  0  0
 29 30  4  0  0  0  0
 31 32  1  0  0  0  0
M  END
>  <Name_Molregno>
105753

>  <Dopamine transporter>
6.8

>  <Norepinephrine transporter>
6.92

>  <Serotonin transporter>
7.26

$$$$
105779
  Marvin  02231216192D 0   1.00000     0.00000     0

 33 36  0  0  0  0  0  0  0  0999 V2000
   -2.2631   -2.6483    0.0000 O   0  0  0  0  0  0  0  0  0
   -1.5487   -3.0608    0.0000 C   0  0  0  0  0  0  0  0  0
   -1.5487   -3.8858    0.0000 C   0  0  0  0  0  0  0  0  0
   -0.8342   -4.2983    0.0000 C   0  0  0  0  0  0  0  0  0
   -0.8342   -5.1233    0.0000 C   0  0  0  0  0  0  0  0  0
   -1.5487   -5.5358    0.0000 C   0  0  0  0  0  0  0  0  0
   -2.2631   -5.1233    0.0000 C   0  0  0  0  0  0  0  0  0
   -2.2631   -4.2983    0.0000 C   0  0  0  0  0  0  0  0  0
   -0.8342   -2.6483    0.0000 C   0  0  0  0  0  0  0  0  0
   -0.8342   -1.8233    0.0000 C   0  0  0  0  0  0  0  0  0
   -0.1197   -1.4108    0.0000 C   0  0  0  0  0  0  0  0  0
    0.5947   -1.8233    0.0000 C   0  0  0  0  0  0  0  0  0
    0.5947   -2.6483    0.0000 C   0  0  0  0  0  0  0  0  0
   -0.1197   -3.0608    0.0000 C   0  0  0  0  0  0  0  0  0
   -2.2631   -1.8233    0.0000 C   0  0  0  0  0  0  0  0  0
   -2.9776   -1.4108    0.0000 C   0  0  0  0  0  0  0  0  0
   -2.9776   -0.5858    0.0000 N   0  0  0  0  0  0  0  0  0
   -3.6921   -0.1733    0.0000 C   0  0  0  0  0  0  0  0  0
   -3.6921    0.6517    0.0000 C   0  0  0  0  0  0  0  0  0
   -2.9776    1.0642    0.0000 C   0  0  0  0  0  0  0  0  0
   -2.9776    1.8892    0.0000 N   0  0  0  0  0  0  0  0  0
   -3.6921    2.3017    0.0000 C   0  0  0  0  0  0  0  0  0
   -3.6921    3.1267    0.0000 C   0  0  0  0  0  0  0  0  0
   -4.4066    3.5392    0.0000 C   0  0  0  0  0  0  0  0  0
   -4.4066    4.3642    0.0000 C   0  0  0  0  0  0  0  0  0
   -5.1210    4.7767    0.0000 C   0  0  0  0  0  0  0  0  0
   -5.1210    5.6017    0.0000 C   0  0  0  0  0  0  0  0  0
   -4.4066    6.0142    0.0000 C   0  0  0  0  0  0  0  0  0
   -3.6921    5.6017    0.0000 C   0  0  0  0  0  0  0  0  0
   -3.6921    4.7767    0.0000 C   0  0  0  0  0  0  0  0  0
   -2.2631    2.3017    0.0000 C   0  0  0  0  0  0  0  0  0
   -2.2631    0.6517    0.0000 C   0  0  0  0  0  0  0  0  0
   -2.2631   -0.1733    0.0000 C   0  0  0  0  0  0  0  0  0
  1  2  1  0  0  0  0
  1 15  1  0  0  0  0
  2  3  1  0  0  0  0
  2  9  1  0  0  0  0
  3  4  4  0  0  0  0
  3  8  4  0  0  0  0
  4  5  4  0  0  0  0
  5  6  4  0  0  0  0
  6  7  4  0  0  0  0
  7  8  4  0  0  0  0
  9 10  4  0  0  0  0
  9 14  4  0  0  0  0
 10 11  4  0  0  0  0
 11 12  4  0  0  0  0
 12 13  4  0  0  0  0
 13 14  4  0  0  0  0
 15 16  1  0  0  0  0
 16 17  1  0  0  0  0
 17 18  1  0  0  0  0
 17 33  1  0  0  0  0
 18 19  1  0  0  0  0
 19 20  1  0  0  0  0
 20 21  1  0  0  0  0
 20 32  1  0  0  0  0
 21 22  1  0  0  0  0
 21 31  1  0  0  0  0
 22 23  1  0  0  0  0
 23 24  1  0  0  0  0
 24 25  1  0  0  0  0
 25 26  4  0  0  0  0
 25 30  4  0  0  0  0
 26 27  4  0  0  0  0
 27 28  4  0  0  0  0
 28 29  4  0  0  0  0
 29 30  4  0  0  0  0
 32 33  1  0  0  0  0
M  END
>  <Name_Molregno>
105779

>  <Dopamine transporter>
7.47

>  <Norepinephrine transporter>
7.38

>  <Serotonin transporter>
7.06

$$$$
105780
  Marvin  02231216192D 0   1.00000     0.00000     0

 32 35  0  0  0  0  0  0  0  0999 V2000
    8.8255    5.1770    0.0000 F   0  0  0  0  0  0  0  0  0
    8.8255    4.3520    0.0000 C   0  0  0  0  0  0  0  0  0
    9.5399    3.9395    0.0000 C   0  0  0  0  0  0  0  0  0
    9.5399    3.1145    0.0000 C   0  0  0  0  0  0  0  0  0
    8.8255    2.7020    0.0000 C   0  0  0  0  0  0  0  0  0
    8.1110    3.1145    0.0000 C   0  0  0  0  0  0  0  0  0
    8.1110    3.9395    0.0000 C   0  0  0  0  0  0  0  0  0
    8.8255    1.8770    0.0000 C   0  0  0  0  0  0  0  0  0
    8.1110    1.4645    0.0000 C   0  0  0  0  0  0  0  0  0
    8.1110    0.6395    0.0000 N   0  0  0  0  0  0  0  0  0
    7.3965    0.2270    0.0000 C   0  0  0  0  0  0  0  0  0
    7.3965   -0.5980    0.0000 C   0  0  0  0  0  0  0  0  0
    6.6821   -1.0105    0.0000 C   0  0  0  0  0  0  0  0  0
    5.9676   -0.5980    0.0000 N   0  0  0  0  0  0  0  0  0
    5.9676    0.2270    0.0000 C   0  0  0  0  0  0  0  0  0
    6.6821    0.6395    0.0000 C   0  0  0  0  0  0  0  0  0
    5.2531   -1.0105    0.0000 C   0  0  0  0  0  0  0  0  0
    5.2531   -1.8355    0.0000 C   0  0  0  0  0  0  0  0  0
    4.5386   -2.2480    0.0000 O   0  0  0  0  0  0  0  0  0
    4.5386   -3.0730    0.0000 C   0  0  0  0  0  0  0  0  0
    3.8242   -3.4855    0.0000 C   0  0  0  0  0  0  0  0  0
    3.8242   -4.3105    0.0000 C   0  0  0  0  0  0  0  0  0
    3.1097   -4.7230    0.0000 C   0  0  0  0  0  0  0  0  0
    2.3952   -4.3105    0.0000 C   0  0  0  0  0  0  0  0  0
    2.3952   -3.4855    0.0000 C   0  0  0  0  0  0  0  0  0
    3.1097   -3.0730    0.0000 C   0  0  0  0  0  0  0  0  0
    5.2531   -3.4855    0.0000 C   0  0  0  0  0  0  0  0  0
    5.9676   -3.0730    0.0000 C   0  0  0  0  0  0  0  0  0
    6.6821   -3.4855    0.0000 C   0  0  0  0  0  0  0  0  0
    6.6821   -4.3105    0.0000 C   0  0  0  0  0  0  0  0  0
    5.9676   -4.7230    0.0000 C   0  0  0  0  0  0  0  0  0
    5.2531   -4.3105    0.0000 C   0  0  0  0  0  0  0  0  0
  1  2  1  0  0  0  0
  2  3  4  0  0  0  0
  2  7  4  0  0  0  0
  3  4  4  0  0  0  0
  4  5  4  0  0  0  0
  5  6  4  0  0  0  0
  5  8  1  0  0  0  0
  6  7  4  0  0  0  0
  8  9  1  0  0  0  0
  9 10  1  0  0  0  0
 10 11  1  0  0  0  0
 11 12  1  0  0  0  0
 11 16  1  0  0  0  0
 12 13  1  0  0  0  0
 13 14  1  0  0  0  0
 14 15  1  0  0  0  0
 14 17  1  0  0  0  0
 15 16  1  0  0  0  0
 17 18  1  0  0  0  0
 18 19  1  0  0  0  0
 19 20  1  0  0  0  0
 20 21  1  0  0  0  0
 20 27  1  0  0  0  0
 21 22  4  0  0  0  0
 21 26  4  0  0  0  0
 22 23  4  0  0  0  0
 23 24  4  0  0  0  0
 24 25  4  0  0  0  0
 25 26  4  0  0  0  0
 27 28  4  0  0  0  0
 27 32  4  0  0  0  0
 28 29  4  0  0  0  0
 29 30  4  0  0  0  0
 30 31  4  0  0  0  0
 31 32  4  0  0  0  0
M  END
>  <Name_Molregno>
105780

>  <Dopamine transporter>
6.96

>  <Norepinephrine transporter>
7.1

>  <Serotonin transporter>
6.66

$$$$
105781
  Marvin  02231216192D 0   1.00000     0.00000     0

 33 36  0  0  1  0  0  0  0  0999 V2000
   -4.8677    1.3004    0.0000 O   0  0  0  0  0  0  0  0  0
   -5.5821    0.8879    0.0000 C   0  0  0  0  0  0  0  0  0
   -6.2966    1.3004    0.0000 C   0  0  0  0  0  0  0  0  0
   -7.0111    0.8879    0.0000 C   0  0  0  0  0  0  0  0  0
   -7.7256    1.3004    0.0000 C   0  0  0  0  0  0  0  0  0
   -7.7256    2.1254    0.0000 C   0  0  0  0  0  0  0  0  0
   -7.0111    2.5379    0.0000 C   0  0  0  0  0  0  0  0  0
   -6.2966    2.1254    0.0000 C   0  0  0  0  0  0  0  0  0
   -5.5821    0.0629    0.0000 C   0  0  0  0  0  0  0  0  0
   -4.8677   -0.3496    0.0000 C   0  0  0  0  0  0  0  0  0
   -4.8677   -1.1746    0.0000 C   0  0  0  0  0  0  0  0  0
   -5.5821   -1.5871    0.0000 C   0  0  0  0  0  0  0  0  0
   -6.2966   -1.1746    0.0000 C   0  0  0  0  0  0  0  0  0
   -6.2966   -0.3496    0.0000 C   0  0  0  0  0  0  0  0  0
   -4.1532    0.8879    0.0000 C   0  0  0  0  0  0  0  0  0
   -3.4387    1.3004    0.0000 C   0  0  0  0  0  0  0  0  0
   -2.7243    0.8879    0.0000 N   0  0  0  0  0  0  0  0  0
   -2.0098    1.3004    0.0000 C   0  0  0  0  0  0  0  0  0
   -1.2953    0.8879    0.0000 C   0  0  0  0  0  0  0  0  0
   -1.2953    0.0629    0.0000 C   0  0  0  0  0  0  0  0  0
   -2.0098   -0.3496    0.0000 C   0  0  0  0  0  0  0  0  0
   -2.7243    0.0629    0.0000 C   0  0  0  0  0  0  0  0  0
   -0.5808    1.3004    0.0000 C   0  0  0  0  0  0  0  0  0
    0.1336    0.8879    0.0000 N   0  0  0  0  0  0  0  0  0
    0.8481    1.3004    0.0000 C   0  0  0  0  0  0  0  0  0
    1.5626    0.8879    0.0000 C   0  0  0  0  0  0  0  0  0
    2.2770    1.3004    0.0000 C   0  0  0  0  0  0  0  0  0
    2.9915    0.8879    0.0000 C   0  0  0  0  0  0  0  0  0
    3.7060    1.3004    0.0000 C   0  0  0  0  0  0  0  0  0
    4.4205    0.8879    0.0000 C   0  0  0  0  0  0  0  0  0
    4.4205    0.0629    0.0000 C   0  0  0  0  0  0  0  0  0
    3.7060   -0.3496    0.0000 C   0  0  0  0  0  0  0  0  0
    2.9915    0.0629    0.0000 C   0  0  0  0  0  0  0  0  0
  1  2  1  0  0  0  0
  1 15  1  0  0  0  0
  2  3  1  0  0  0  0
  2  9  1  0  0  0  0
  3  4  4  0  0  0  0
  3  8  4  0  0  0  0
  4  5  4  0  0  0  0
  5  6  4  0  0  0  0
  6  7  4  0  0  0  0
  7  8  4  0  0  0  0
  9 10  4  0  0  0  0
  9 14  4  0  0  0  0
 10 11  4  0  0  0  0
 11 12  4  0  0  0  0
 12 13  4  0  0  0  0
 13 14  4  0  0  0  0
 15 16  1  0  0  0  0
 16 17  1  0  0  0  0
 17 18  1  0  0  0  0
 17 22  1  0  0  0  0
 18 19  1  0  0  0  0
 19 20  1  0  0  0  0
 19 23  1  0  0  0  0
 20 21  1  0  0  0  0
 21 22  1  0  0  0  0
 23 24  1  0  0  0  0
 24 25  1  0  0  0  0
 25 26  1  0  0  0  0
 26 27  1  0  0  0  0
 27 28  1  0  0  0  0
 28 29  4  0  0  0  0
 28 33  4  0  0  0  0
 29 30  4  0  0  0  0
 30 31  4  0  0  0  0
 31 32  4  0  0  0  0
 32 33  4  0  0  0  0
M  END
>  <Name_Molregno>
105781

>  <Dopamine transporter>
7.15

>  <Norepinephrine transporter>
7.39

>  <Serotonin transporter>
6.49

$$$$
105788
  Marvin  02231216192D 0   1.00000     0.00000     0

 30 33  0  0  0  0  0  0  0  0999 V2000
   -3.3859   -0.3158    0.0000 O   0  0  0  0  0  0  0  0  0
   -4.1003    0.0967    0.0000 C   0  0  0  0  0  0  0  0  0
   -4.8148   -0.3158    0.0000 C   0  0  0  0  0  0  0  0  0
   -4.8148   -1.1408    0.0000 C   0  0  0  0  0  0  0  0  0
   -5.5293   -1.5533    0.0000 C   0  0  0  0  0  0  0  0  0
   -6.2437   -1.1408    0.0000 C   0  0  0  0  0  0  0  0  0
   -6.2437   -0.3158    0.0000 C   0  0  0  0  0  0  0  0  0
   -5.5293    0.0967    0.0000 C   0  0  0  0  0  0  0  0  0
   -4.1003    0.9217    0.0000 C   0  0  0  0  0  0  0  0  0
   -4.8148    1.3342    0.0000 C   0  0  0  0  0  0  0  0  0
   -4.8148    2.1592    0.0000 C   0  0  0  0  0  0  0  0  0
   -4.1003    2.5717    0.0000 C   0  0  0  0  0  0  0  0  0
   -3.3859    2.1592    0.0000 C   0  0  0  0  0  0  0  0  0
   -3.3859    1.3342    0.0000 C   0  0  0  0  0  0  0  0  0
   -2.6714    0.0967    0.0000 C   0  0  0  0  0  0  0  0  0
   -1.9569   -0.3158    0.0000 C   0  0  0  0  0  0  0  0  0
   -1.2424    0.0967    0.0000 N   0  0  0  0  0  0  0  0  0
   -0.5280   -0.3158    0.0000 C   0  0  0  0  0  0  0  0  0
    0.1865    0.0967    0.0000 C   0  0  0  0  0  0  0  0  0
    0.9010   -0.3158    0.0000 C   0  0  0  0  0  0  0  0  0
    0.9010   -1.1408    0.0000 N   0  0  0  0  0  0  0  0  0
    0.1865   -1.5533    0.0000 C   0  0  0  0  0  0  0  0  0
   -0.5280   -1.1408    0.0000 C   0  0  0  0  0  0  0  0  0
    1.6154   -1.5533    0.0000 C   0  0  0  0  0  0  0  0  0
    2.3299   -1.1408    0.0000 C   0  0  0  0  0  0  0  0  0
    2.3299   -0.3158    0.0000 C   0  0  0  0  0  0  0  0  0
    3.0444    0.0967    0.0000 C   0  0  0  0  0  0  0  0  0
    3.7589   -0.3158    0.0000 C   0  0  0  0  0  0  0  0  0
    3.7589   -1.1408    0.0000 C   0  0  0  0  0  0  0  0  0
    3.0444   -1.5533    0.0000 C   0  0  0  0  0  0  0  0  0
  1  2  1  0  0  0  0
  1 15  1  0  0  0  0
  2  3  1  0  0  0  0
  2  9  1  0  0  0  0
  3  4  4  0  0  0  0
  3  8  4  0  0  0  0
  4  5  4  0  0  0  0
  5  6  4  0  0  0  0
  6  7  4  0  0  0  0
  7  8  4  0  0  0  0
  9 10  4  0  0  0  0
  9 14  4  0  0  0  0
 10 11  4  0  0  0  0
 11 12  4  0  0  0  0
 12 13  4  0  0  0  0
 13 14  4  0  0  0  0
 15 16  1  0  0  0  0
 16 17  1  0  0  0  0
 17 18  1  0  0  0  0
 18 19  1  0  0  0  0
 18 23  1  0  0  0  0
 19 20  1  0  0  0  0
 20 21  1  0  0  0  0
 21 22  1  0  0  0  0
 21 24  1  0  0  0  0
 22 23  1  0  0  0  0
 24 25  1  0  0  0  0
 25 26  4  0  0  0  0
 25 30  4  0  0  0  0
 26 27  4  0  0  0  0
 27 28  4  0  0  0  0
 28 29  4  0  0  0  0
 29 30  4  0  0  0  0
M  END
>  <Name_Molregno>
105788

>  <Dopamine transporter>
7.08

>  <Norepinephrine transporter>
6.74

>  <Serotonin transporter>
5.67

$$$$
120674
  Marvin  02231216192D 0   1.00000     0.00000     0

 27 29  0  0  1  0  0  0  0  0999 V2000
    4.4208    6.3587    0.0000 F   0  0  0  0  0  0  0  0  0
    4.4208    5.5337    0.0000 C   0  0  0  0  0  0  0  0  0
    5.1353    5.1212    0.0000 C   0  0  0  0  0  0  0  0  0
    5.1353    4.2962    0.0000 C   0  0  0  0  0  0  0  0  0
    4.4208    3.8837    0.0000 C   0  0  0  0  0  0  0  0  0
    3.7063    4.2962    0.0000 C   0  0  0  0  0  0  0  0  0
    3.7063    5.1212    0.0000 C   0  0  0  0  0  0  0  0  0
    4.4208    3.0587    0.0000 C   0  0  0  0  0  0  0  0  0
    5.1353    2.6462    0.0000 C   0  0  0  0  0  0  0  0  0
    5.1353    1.8212    0.0000 N   0  0  0  0  0  0  0  0  0
    5.8497    1.4087    0.0000 C   0  0  0  0  0  0  0  0  0
    5.8497    0.5837    0.0000 C   0  0  0  0  0  0  0  0  0
    5.1353    0.1712    0.0000 C   0  0  0  0  0  0  0  0  0
    4.4208    0.5837    0.0000 C   0  0  0  0  0  0  0  0  0
    4.4208    1.4087    0.0000 C   0  0  0  0  0  0  0  0  0
    5.1353   -0.6538    0.0000 C   0  0  0  0  0  0  0  0  0
    4.4208   -1.0663    0.0000 O   0  0  0  0  0  0  0  0  0
    5.8497   -1.0663    0.0000 C   0  0  0  0  0  0  0  0  0
    6.5642   -0.6538    0.0000 C   0  0  0  0  0  0  0  0  0
    7.2787   -1.0663    0.0000 C   0  0  0  0  0  0  0  0  0
    7.2787   -1.8913    0.0000 C   0  0  0  0  0  0  0  0  0
    6.5642   -2.3038    0.0000 C   0  0  0  0  0  0  0  0  0
    6.5642   -3.1288    0.0000 O   0  0  0  0  0  0  0  0  0
    7.2787   -3.5413    0.0000 C   0  0  0  0  0  0  0  0  0
    5.8497   -1.8913    0.0000 C   0  0  0  0  0  0  0  0  0
    5.1353   -2.3038    0.0000 O   0  0  0  0  0  0  0  0  0
    5.1353   -3.1288    0.0000 C   0  0  0  0  0  0  0  0  0
  1  2  1  0  0  0  0
  2  3  4  0  0  0  0
  2  7  4  0  0  0  0
  3  4  4  0  0  0  0
  4  5  4  0  0  0  0
  5  6  4  0  0  0  0
  5  8  1  0  0  0  0
  6  7  4  0  0  0  0
  8  9  1  0  0  0  0
  9 10  1  0  0  0  0
 10 11  1  0  0  0  0
 10 15  1  0  0  0  0
 11 12  1  0  0  0  0
 12 13  1  0  0  0  0
 13 14  1  0  0  0  0
 13 16  1  0  0  0  0
 14 15  1  0  0  0  0
 16 17  1  0  0  0  0
 16 18  1  0  0  0  0
 18 19  4  0  0  0  0
 18 25  4  0  0  0  0
 19 20  4  0  0  0  0
 20 21  4  0  0  0  0
 21 22  4  0  0  0  0
 22 23  1  0  0  0  0
 22 25  4  0  0  0  0
 23 24  1  0  0  0  0
 25 26  1  0  0  0  0
 26 27  1  0  0  0  0
M  END
>  <Name_Molregno>
120674

>  <5-HT1A>
5

>  <5-HT1E>
5

>  <5-HT2A>
9.16

>  <5-HT2C>
7.37

>  <5-HT3>
5

>  <5-HT5>
5

>  <5-HT6>
5.46

>  <Alpha-1A>
6.41

>  <Alpha-1B>
6.37

>  <Alpha-2A>
5.72

>  <Alpha-2B>
6.57

>  <Alpha-2C>
5.84

>  <Beta-1>
5

>  <Beta-2>
5

>  <DOPAMINE D1>
5.67

>  <DOPAMINE D2>
5.23

>  <DOPAMINE D4>
5.42

>  <DOPAMINE D5>
5

>  <Dopamine transporter>
5

>  <HISTAMINE H1>
7.18

>  <HISTAMINE H4>
5

>  <Muscarinic acetylcholine receptor M1>
5

>  <Muscarinic acetylcholine receptor M2>
5

>  <Muscarinic acetylcholine receptor M3>
5

>  <Muscarinic acetylcholine receptor M4>
5

>  <Muscarinic acetylcholine receptor M5>
5

>  <Norepinephrine transporter>
5

>  <Serotonin transporter>
5

$$$$
125449
  Marvin  02231216192D 0   1.00000     0.00000     0

 20 22  0  0  1  0  0  0  0  0999 V2000
    5.3954   -2.4329    0.0000 F   0  0  0  0  0  0  0  0  0
    4.9836   -1.7180    0.0000 C   0  0  0  0  0  0  0  0  0
    4.1586   -1.7172    0.0000 C   0  0  0  0  0  0  0  0  0
    3.7468   -1.0023    0.0000 C   0  0  0  0  0  0  0  0  0
    4.1600   -0.2882    0.0000 C   0  0  0  0  0  0  0  0  0
    4.9850   -0.2890    0.0000 C   0  0  0  0  0  0  0  0  0
    5.3968   -1.0039    0.0000 C   0  0  0  0  0  0  0  0  0
    3.7482    0.4267    0.0000 C   0  0  0  0  0  0  0  0  0
    3.6100    1.2441    0.0000 C   0  0  0  0  0  0  0  0  0
    2.6812    1.2286    0.0000 C   0  0  0  0  0  0  0  0  0
    2.1206    1.6685    0.0000 N   0  0  0  0  0  0  0  0  0
    2.2603    0.8554    0.0000 C   0  0  0  0  0  0  0  0  0
    1.7404    0.1431    0.0000 C   0  0  0  0  0  0  0  0  0
    2.3607    0.5200    0.0000 C   0  0  0  0  0  0  0  0  0
    3.2320    0.8554    0.0000 C   0  0  0  0  0  0  0  0  0
    2.9518    0.0794    0.0000 C   0  0  0  0  0  0  0  0  0
    2.1397   -0.0659    0.0000 O   0  0  0  0  0  0  0  0  0
    1.8595   -0.8419    0.0000 C   0  0  0  0  0  0  0  0  0
    3.4837   -0.5512    0.0000 O   0  0  0  0  0  0  0  0  0
    1.6980    2.3770    0.0000 C   0  0  0  0  0  0  0  0  0
  1  2  1  0  0  0  0
  2  3  4  0  0  0  0
  2  7  4  0  0  0  0
  3  4  4  0  0  0  0
  4  5  4  0  0  0  0
  5  6  4  0  0  0  0
  5  8  1  0  0  0  0
  6  7  4  0  0  0  0
  8  9  1  0  0  0  0
  8 15  1  0  0  0  0
  9 10  1  0  0  0  0
 10 11  1  0  0  0  0
 10 14  1  0  0  0  0
 11 12  1  0  0  0  0
 11 20  1  0  0  0  0
 12 13  1  0  0  0  0
 12 15  1  0  0  0  0
 13 14  1  0  0  0  0
 15 16  1  0  0  0  0
 16 17  1  0  0  0  0
 16 19  2  0  0  0  0
 17 18  1  0  0  0  0
M  END
>  <Name_Molregno>
125449

>  <Dopamine transporter>
7.57

>  <Norepinephrine transporter>
5.93

>  <Serotonin transporter>
6.77

$$$$
133158
  Marvin  02231216192D 0   1.00000     0.00000     0

 20 22  0  0  1  0  0  0  0  0999 V2000
    0.8981    1.2191    0.0000 O   0  0  0  0  0  0  0  0  0
    1.1840    0.4453    0.0000 C   0  0  0  0  0  0  0  0  0
    1.9971    0.3059    0.0000 O   0  0  0  0  0  0  0  0  0
    0.6567   -0.1893    0.0000 C   0  0  0  0  0  0  0  0  0
   -0.2721   -0.2048    0.0000 C   0  0  0  0  0  0  0  0  0
   -0.8327    0.2351    0.0000 N   0  0  0  0  0  0  0  0  0
   -0.6930   -0.5780    0.0000 C   0  0  0  0  0  0  0  0  0
    0.2787   -0.5780    0.0000 C   0  0  0  0  0  0  0  0  0
    0.7949   -1.0067    0.0000 C   0  0  0  0  0  0  0  0  0
    1.2067   -1.7215    0.0000 C   0  0  0  0  0  0  0  0  0
    2.0317   -1.7224    0.0000 C   0  0  0  0  0  0  0  0  0
    2.4435   -2.4372    0.0000 C   0  0  0  0  0  0  0  0  0
    2.0303   -3.1513    0.0000 C   0  0  0  0  0  0  0  0  0
    1.2053   -3.1505    0.0000 C   0  0  0  0  0  0  0  0  0
    0.7935   -2.4356    0.0000 C   0  0  0  0  0  0  0  0  0
    2.4421   -3.8662    0.0000 C   0  0  0  0  0  0  0  0  0
   -1.2129   -1.2903    0.0000 C   0  0  0  0  0  0  0  0  0
   -0.5926   -0.9134    0.0000 C   0  0  0  0  0  0  0  0  0
   -1.2553    0.9437    0.0000 C   0  0  0  0  0  0  0  0  0
    1.4253    1.8537    0.0000 C   0  0  0  0  0  0  0  0  0
  1  2  1  0  0  0  0
  1 20  1  0  0  0  0
  2  3  2  0  0  0  0
  2  4  1  0  0  0  0
  4  5  1  0  0  0  0
  4  9  1  0  0  0  0
  5  6  1  0  0  0  0
  5 18  1  0  0  0  0
  6  7  1  0  0  0  0
  6 19  1  0  0  0  0
  7  8  1  0  0  0  0
  7 17  1  0  0  0  0
  8  9  1  0  0  0  0
  9 10  1  0  0  0  0
 10 11  4  0  0  0  0
 10 15  4  0  0  0  0
 11 12  4  0  0  0  0
 12 13  4  0  0  0  0
 13 14  4  0  0  0  0
 13 16  1  0  0  0  0
 14 15  4  0  0  0  0
 17 18  1  0  0  0  0
M  END
>  <Name_Molregno>
133158

>  <Norepinephrine transporter>
6.48

>  <Serotonin transporter>
7.02

$$$$
135196
  Marvin  02231216192D 0   1.00000     0.00000     0

 21 23  0  0  1  0  0  0  0  0999 V2000
    2.8881    3.5102    0.0000 O   0  0  0  0  0  0  0  0  0
    2.8881    4.3352    0.0000 C   0  0  0  0  0  0  0  0  0
    2.1736    3.0977    0.0000 C   0  0  0  0  0  0  0  0  0
    2.1736    2.2727    0.0000 C   0  0  0  0  0  0  0  0  0
    1.4591    1.8602    0.0000 C   0  0  0  0  0  0  0  0  0
    0.7447    2.2727    0.0000 C   0  0  0  0  0  0  0  0  0
    0.7447    3.0977    0.0000 C   0  0  0  0  0  0  0  0  0
    1.4591    3.5102    0.0000 C   0  0  0  0  0  0  0  0  0
    1.4591    4.3352    0.0000 O   0  0  0  0  0  0  0  0  0
    0.7447    4.7477    0.0000 C   0  0  0  0  0  0  0  0  0
    1.4591    1.0352    0.0000 C   0  0  0  0  0  0  0  0  0
    0.7447    0.6227    0.0000 N   0  0  0  0  0  0  0  0  0
    0.7447   -0.2023    0.0000 N   0  0  0  0  0  0  0  0  0
    1.4591   -0.6148    0.0000 C   0  0  0  0  0  0  0  0  0
    1.4591   -1.4398    0.0000 O   0  0  0  0  0  0  0  0  0
    2.1736   -0.2023    0.0000 C   0  0  0  0  0  0  0  0  0
    2.1736    0.6227    0.0000 C   0  0  0  0  0  0  0  0  0
    2.8881    1.0352    0.0000 C   0  0  0  0  0  0  0  0  0
    3.6025    0.6227    0.0000 C   0  0  0  0  0  0  0  0  0
    3.6025   -0.2023    0.0000 C   0  0  0  0  0  0  0  0  0
    2.8881   -0.6148    0.0000 C   0  0  0  0  0  0  0  0  0
  1  2  1  0  0  0  0
  1  3  1  0  0  0  0
  3  4  4  0  0  0  0
  3  8  4  0  0  0  0
  4  5  4  0  0  0  0
  5  6  4  0  0  0  0
  5 11  1  0  0  0  0
  6  7  4  0  0  0  0
  7  8  4  0  0  0  0
  8  9  1  0  0  0  0
  9 10  1  0  0  0  0
 11 12  2  0  0  0  0
 11 17  1  0  0  0  0
 12 13  1  0  0  0  0
 13 14  1  0  0  0  0
 14 15  2  0  0  0  0
 14 16  1  0  0  0  0
 16 17  1  0  0  0  0
 16 21  1  0  0  0  0
 17 18  1  0  0  0  0
 18 19  1  0  0  0  0
 19 20  2  0  0  0  0
 20 21  1  0  0  0  0
M  END
>  <Name_Molregno>
135196

>  <Dopamine transporter>
4.4

>  <Norepinephrine transporter>
4.4

>  <Serotonin transporter>
4.4

$$$$
160746
  Marvin  02231216192D 0   1.00000     0.00000     0

 19 20  0  0  1  0  0  0  0  0999 V2000
    0.7549   -0.5128    0.0000 Cl  0  0  0  0  0  0  0  0  0
    0.7549   -1.3378    0.0000 C   0  0  0  0  0  0  0  0  0
    1.4693   -1.7503    0.0000 C   0  0  0  0  0  0  0  0  0
    1.4693   -2.5753    0.0000 C   0  0  0  0  0  0  0  0  0
    0.7549   -2.9878    0.0000 C   0  0  0  0  0  0  0  0  0
    0.0404   -2.5753    0.0000 C   0  0  0  0  0  0  0  0  0
    0.0404   -1.7503    0.0000 C   0  0  0  0  0  0  0  0  0
   -0.6741   -1.3378    0.0000 C   0  0  0  0  0  0  0  0  0
   -0.6741   -0.5128    0.0000 C   0  0  0  0  0  0  0  0  0
   -1.3885   -0.1003    0.0000 N   0  0  0  0  0  0  0  0  0
   -2.1030   -0.5128    0.0000 C   0  0  0  0  0  0  0  0  0
   -1.3885    0.7247    0.0000 C   0  0  0  0  0  0  0  0  0
   -1.3885   -1.7503    0.0000 C   0  0  0  0  0  0  0  0  0
   -1.6707   -0.9751    0.0000 O   0  0  0  0  0  0  0  0  0
   -0.8582   -2.3823    0.0000 C   0  0  0  0  0  0  0  0  0
   -1.1404   -3.1575    0.0000 C   0  0  0  0  0  0  0  0  0
   -1.9529   -3.3008    0.0000 C   0  0  0  0  0  0  0  0  0
   -2.4832   -2.6688    0.0000 C   0  0  0  0  0  0  0  0  0
   -2.2010   -1.8936    0.0000 C   0  0  0  0  0  0  0  0  0
  1  2  1  0  0  0  0
  2  3  4  0  0  0  0
  2  7  4  0  0  0  0
  3  4  4  0  0  0  0
  4  5  4  0  0  0  0
  5  6  4  0  0  0  0
  6  7  4  0  0  0  0
  7  8  1  0  0  0  0
  8  9  1  0  0  0  0
  8 13  1  0  0  0  0
  9 10  1  0  0  0  0
 10 11  1  0  0  0  0
 10 12  1  0  0  0  0
 13 14  1  0  0  0  0
 13 15  1  0  0  0  0
 13 19  1  0  0  0  0
 15 16  1  0  0  0  0
 16 17  1  0  0  0  0
 17 18  1  0  0  0  0
 18 19  1  0  0  0  0
M  END
>  <Name_Molregno>
160746

>  <Norepinephrine transporter>
6.9

$$$$
161229
  Marvin  02231216192D 0   1.00000     0.00000     0

 25 28  0  0  1  0  0  0  0  0999 V2000
    5.6365   -4.9901    0.0000 F   0  0  0  0  0  0  0  0  0
    5.2247   -4.2752    0.0000 C   0  0  0  0  0  0  0  0  0
    4.3997   -4.2744    0.0000 C   0  0  0  0  0  0  0  0  0
    3.9879   -3.5595    0.0000 C   0  0  0  0  0  0  0  0  0
    4.4011   -2.8455    0.0000 C   0  0  0  0  0  0  0  0  0
    5.2261   -2.8463    0.0000 C   0  0  0  0  0  0  0  0  0
    5.6379   -3.5611    0.0000 C   0  0  0  0  0  0  0  0  0
    3.9893   -2.1306    0.0000 C   0  0  0  0  0  0  0  0  0
    4.4025   -1.4165    0.0000 O   0  0  0  0  0  0  0  0  0
    3.9907   -0.7016    0.0000 C   0  0  0  0  0  0  0  0  0
    3.8525    0.1158    0.0000 C   0  0  0  0  0  0  0  0  0
    2.9237    0.1003    0.0000 C   0  0  0  0  0  0  0  0  0
    2.3631    0.5402    0.0000 N   0  0  0  0  0  0  0  0  0
    2.5028   -0.2729    0.0000 C   0  0  0  0  0  0  0  0  0
    3.4745   -0.2729    0.0000 C   0  0  0  0  0  0  0  0  0
    1.9829   -0.9852    0.0000 C   0  0  0  0  0  0  0  0  0
    2.6032   -0.6083    0.0000 C   0  0  0  0  0  0  0  0  0
    1.9405    1.2487    0.0000 C   0  0  0  0  0  0  0  0  0
    3.1643   -2.1298    0.0000 C   0  0  0  0  0  0  0  0  0
    2.7511   -2.8438    0.0000 C   0  0  0  0  0  0  0  0  0
    1.9261   -2.8430    0.0000 C   0  0  0  0  0  0  0  0  0
    1.5143   -2.1281    0.0000 C   0  0  0  0  0  0  0  0  0
    0.6893   -2.1273    0.0000 F   0  0  0  0  0  0  0  0  0
    1.9275   -1.4141    0.0000 C   0  0  0  0  0  0  0  0  0
    2.7525   -1.4149    0.0000 C   0  0  0  0  0  0  0  0  0
  1  2  1  0  0  0  0
  2  3  4  0  0  0  0
  2  7  4  0  0  0  0
  3  4  4  0  0  0  0
  4  5  4  0  0  0  0
  5  6  4  0  0  0  0
  5  8  1  0  0  0  0
  6  7  4  0  0  0  0
  8  9  1  0  0  0  0
  8 19  1  0  0  0  0
  9 10  1  0  0  0  0
 10 11  1  0  0  0  0
 10 15  1  0  0  0  0
 11 12  1  0  0  0  0
 12 13  1  0  0  0  0
 12 17  1  0  0  0  0
 13 14  1  0  0  0  0
 13 18  1  0  0  0  0
 14 15  1  0  0  0  0
 14 16  1  0  0  0  0
 16 17  1  0  0  0  0
 19 20  4  0  0  0  0
 19 25  4  0  0  0  0
 20 21  4  0  0  0  0
 21 22  4  0  0  0  0
 22 23  1  0  0  0  0
 22 24  4  0  0  0  0
 24 25  4  0  0  0  0
M  END
>  <Name_Molregno>
161229

>  <Dopamine transporter>
7.86

>  <Muscarinic acetylcholine receptor M1>
7.94

>  <Norepinephrine transporter>
6.07

>  <Serotonin transporter>
5.49

$$$$
161309
  Marvin  02231216192D 0   1.00000     0.00000     0

 19 20  0  0  1  0  0  0  0  0999 V2000
    2.0951    4.1983    0.0000 Cl  0  0  0  0  0  0  0  0  0
    2.0951    3.3733    0.0000 C   0  0  0  0  0  0  0  0  0
    2.8095    2.9608    0.0000 C   0  0  0  0  0  0  0  0  0
    2.8095    2.1358    0.0000 C   0  0  0  0  0  0  0  0  0
    2.0951    1.7233    0.0000 C   0  0  0  0  0  0  0  0  0
    1.3806    2.1358    0.0000 C   0  0  0  0  0  0  0  0  0
    1.3806    2.9608    0.0000 C   0  0  0  0  0  0  0  0  0
    2.0951    0.8983    0.0000 C   0  0  0  0  0  0  0  0  0
    1.3806    0.4858    0.0000 C   0  0  0  0  0  0  0  0  0
    1.3806   -0.3392    0.0000 N   0  0  0  0  0  0  0  0  0
    2.0951   -0.7517    0.0000 C   0  0  0  0  0  0  0  0  0
    0.6661   -0.7517    0.0000 C   0  0  0  0  0  0  0  0  0
    2.8095    0.4858    0.0000 C   0  0  0  0  0  0  0  0  0
    2.2792   -0.1461    0.0000 O   0  0  0  0  0  0  0  0  0
    3.0917    1.2611    0.0000 C   0  0  0  0  0  0  0  0  0
    3.9042    1.4043    0.0000 C   0  0  0  0  0  0  0  0  0
    4.4345    0.7724    0.0000 C   0  0  0  0  0  0  0  0  0
    4.1523   -0.0029    0.0000 C   0  0  0  0  0  0  0  0  0
    3.3398   -0.1461    0.0000 C   0  0  0  0  0  0  0  0  0
  1  2  1  0  0  0  0
  2  3  4  0  0  0  0
  2  7  4  0  0  0  0
  3  4  4  0  0  0  0
  4  5  4  0  0  0  0
  5  6  4  0  0  0  0
  5  8  1  0  0  0  0
  6  7  4  0  0  0  0
  8  9  1  0  0  0  0
  8 13  1  0  0  0  0
  9 10  1  0  0  0  0
 10 11  1  0  0  0  0
 10 12  1  0  0  0  0
 13 14  1  0  0  0  0
 13 15  1  0  0  0  0
 13 19  1  0  0  0  0
 15 16  1  0  0  0  0
 16 17  1  0  0  0  0
 17 18  1  0  0  0  0
 18 19  1  0  0  0  0
M  END
>  <Name_Molregno>
161309

>  <Norepinephrine transporter>
6.6

$$$$
161345
  Marvin  02231216192D 0   1.00000     0.00000     0

 19 20  0  0  1  0  0  0  0  0999 V2000
   -0.2203   -0.1295    0.0000 Cl  0  0  0  0  0  0  0  0  0
   -0.2203   -0.9545    0.0000 C   0  0  0  0  0  0  0  0  0
    0.4942   -1.3670    0.0000 C   0  0  0  0  0  0  0  0  0
    0.4942   -2.1920    0.0000 C   0  0  0  0  0  0  0  0  0
   -0.2203   -2.6045    0.0000 C   0  0  0  0  0  0  0  0  0
   -0.9348   -2.1920    0.0000 C   0  0  0  0  0  0  0  0  0
   -0.9348   -1.3670    0.0000 C   0  0  0  0  0  0  0  0  0
    1.2086   -2.6045    0.0000 C   0  0  0  0  0  0  0  0  0
    1.2086   -3.4295    0.0000 C   0  0  0  0  0  0  0  0  0
    1.9231   -3.8420    0.0000 N   0  0  0  0  0  0  0  0  0
    2.6376   -3.4295    0.0000 C   0  0  0  0  0  0  0  0  0
    1.9231   -4.6670    0.0000 C   0  0  0  0  0  0  0  0  0
    1.9231   -2.1920    0.0000 C   0  0  0  0  0  0  0  0  0
    2.2053   -2.9673    0.0000 O   0  0  0  0  0  0  0  0  0
    1.3928   -1.5601    0.0000 C   0  0  0  0  0  0  0  0  0
    1.6750   -0.7848    0.0000 C   0  0  0  0  0  0  0  0  0
    2.4874   -0.6416    0.0000 C   0  0  0  0  0  0  0  0  0
    3.0177   -1.2735    0.0000 C   0  0  0  0  0  0  0  0  0
    2.7356   -2.0488    0.0000 C   0  0  0  0  0  0  0  0  0
  1  2  1  0  0  0  0
  2  3  4  0  0  0  0
  2  7  4  0  0  0  0
  3  4  4  0  0  0  0
  4  5  4  0  0  0  0
  4  8  1  0  0  0  0
  5  6  4  0  0  0  0
  6  7  4  0  0  0  0
  8  9  1  0  0  0  0
  8 13  1  0  0  0  0
  9 10  1  0  0  0  0
 10 11  1  0  0  0  0
 10 12  1  0  0  0  0
 13 14  1  0  0  0  0
 13 15  1  0  0  0  0
 13 19  1  0  0  0  0
 15 16  1  0  0  0  0
 16 17  1  0  0  0  0
 17 18  1  0  0  0  0
 18 19  1  0  0  0  0
M  END
>  <Name_Molregno>
161345

>  <Norepinephrine transporter>
6.9

$$$$
161346
  Marvin  02231216192D 0   1.00000     0.00000     0

 20 21  0  0  1  0  0  0  0  0999 V2000
   -3.2699    3.0356    0.0000 O   0  0  0  0  0  0  0  0  0
   -3.9844    3.4481    0.0000 C   0  0  0  0  0  0  0  0  0
   -3.2699    2.2106    0.0000 C   0  0  0  0  0  0  0  0  0
   -2.5554    1.7981    0.0000 C   0  0  0  0  0  0  0  0  0
   -2.5554    0.9731    0.0000 C   0  0  0  0  0  0  0  0  0
   -3.2699    0.5606    0.0000 C   0  0  0  0  0  0  0  0  0
   -3.9844    0.9731    0.0000 C   0  0  0  0  0  0  0  0  0
   -3.9844    1.7981    0.0000 C   0  0  0  0  0  0  0  0  0
   -1.8410    0.5606    0.0000 C   0  0  0  0  0  0  0  0  0
   -1.8410   -0.2644    0.0000 C   0  0  0  0  0  0  0  0  0
   -1.1265   -0.6769    0.0000 N   0  0  0  0  0  0  0  0  0
   -0.4120   -0.2644    0.0000 C   0  0  0  0  0  0  0  0  0
   -1.1265   -1.5019    0.0000 C   0  0  0  0  0  0  0  0  0
   -1.1265    0.9731    0.0000 C   0  0  0  0  0  0  0  0  0
   -0.8443    0.1978    0.0000 O   0  0  0  0  0  0  0  0  0
   -1.6568    1.6050    0.0000 C   0  0  0  0  0  0  0  0  0
   -1.3746    2.3803    0.0000 C   0  0  0  0  0  0  0  0  0
   -0.5621    2.5235    0.0000 C   0  0  0  0  0  0  0  0  0
   -0.0318    1.8916    0.0000 C   0  0  0  0  0  0  0  0  0
   -0.3140    1.1163    0.0000 C   0  0  0  0  0  0  0  0  0
  1  2  1  0  0  0  0
  1  3  1  0  0  0  0
  3  4  4  0  0  0  0
  3  8  4  0  0  0  0
  4  5  4  0  0  0  0
  5  6  4  0  0  0  0
  5  9  1  0  0  0  0
  6  7  4  0  0  0  0
  7  8  4  0  0  0  0
  9 10  1  0  0  0  0
  9 14  1  0  0  0  0
 10 11  1  0  0  0  0
 11 12  1  0  0  0  0
 11 13  1  0  0  0  0
 14 15  1  0  0  0  0
 14 16  1  0  0  0  0
 14 20  1  0  0  0  0
 16 17  1  0  0  0  0
 17 18  1  0  0  0  0
 18 19  1  0  0  0  0
 19 20  1  0  0  0  0
M  END
>  <Name_Molregno>
161346

>  <Norepinephrine transporter>
6.5

$$$$
161503
  Marvin  02231216192D 0   1.00000     0.00000     0

 22 23  0  0  1  0  0  0  0  0999 V2000
   -3.1419    1.5333    0.0000 F   0  0  0  0  0  0  0  0  0
   -3.1419    0.7083    0.0000 C   0  0  0  0  0  0  0  0  0
   -3.9669    0.7083    0.0000 F   0  0  0  0  0  0  0  0  0
   -2.3169    0.7083    0.0000 F   0  0  0  0  0  0  0  0  0
   -3.1419   -0.1167    0.0000 C   0  0  0  0  0  0  0  0  0
   -2.4275   -0.5292    0.0000 C   0  0  0  0  0  0  0  0  0
   -2.4275   -1.3542    0.0000 C   0  0  0  0  0  0  0  0  0
   -3.1419   -1.7667    0.0000 C   0  0  0  0  0  0  0  0  0
   -3.8564   -1.3542    0.0000 C   0  0  0  0  0  0  0  0  0
   -3.8564   -0.5292    0.0000 C   0  0  0  0  0  0  0  0  0
   -1.7130   -1.7667    0.0000 C   0  0  0  0  0  0  0  0  0
   -1.7130   -2.5917    0.0000 C   0  0  0  0  0  0  0  0  0
   -0.9985   -3.0042    0.0000 N   0  0  0  0  0  0  0  0  0
   -0.2840   -2.5917    0.0000 C   0  0  0  0  0  0  0  0  0
   -0.9985   -3.8292    0.0000 C   0  0  0  0  0  0  0  0  0
   -0.9985   -1.3542    0.0000 C   0  0  0  0  0  0  0  0  0
   -0.7164   -2.1294    0.0000 O   0  0  0  0  0  0  0  0  0
   -1.5288   -0.7222    0.0000 C   0  0  0  0  0  0  0  0  0
   -1.2467    0.0531    0.0000 C   0  0  0  0  0  0  0  0  0
   -0.4342    0.1963    0.0000 C   0  0  0  0  0  0  0  0  0
    0.0961   -0.4356    0.0000 C   0  0  0  0  0  0  0  0  0
   -0.1861   -1.2109    0.0000 C   0  0  0  0  0  0  0  0  0
  1  2  1  0  0  0  0
  2  3  1  0  0  0  0
  2  4  1  0  0  0  0
  2  5  1  0  0  0  0
  5  6  4  0  0  0  0
  5 10  4  0  0  0  0
  6  7  4  0  0  0  0
  7  8  4  0  0  0  0
  7 11  1  0  0  0  0
  8  9  4  0  0  0  0
  9 10  4  0  0  0  0
 11 12  1  0  0  0  0
 11 16  1  0  0  0  0
 12 13  1  0  0  0  0
 13 14  1  0  0  0  0
 13 15  1  0  0  0  0
 16 17  1  0  0  0  0
 16 18  1  0  0  0  0
 16 22  1  0  0  0  0
 18 19  1  0  0  0  0
 19 20  1  0  0  0  0
 20 21  1  0  0  0  0
 21 22  1  0  0  0  0
M  END
>  <Name_Molregno>
161503

>  <Norepinephrine transporter>
7.68

$$$$
165576
  Marvin  02231216192D 0   1.00000     0.00000     0

 20 22  0  0  0  0  0  0  0  0999 V2000
    0.9311   -3.8984    0.0000 O   0  0  0  0  0  0  0  0  0
    0.9311   -3.0734    0.0000 C   0  0  0  0  0  0  0  0  0
    1.6455   -2.6609    0.0000 O   0  0  0  0  0  0  0  0  0
    0.2166   -2.6609    0.0000 C   0  0  0  0  0  0  0  0  0
   -0.4979   -3.0734    0.0000 C   0  0  0  0  0  0  0  0  0
   -1.2124   -2.6609    0.0000 C   0  0  0  0  0  0  0  0  0
   -1.2124   -1.8359    0.0000 C   0  0  0  0  0  0  0  0  0
   -0.4979   -1.4234    0.0000 C   0  0  0  0  0  0  0  0  0
    0.2166   -1.8359    0.0000 C   0  0  0  0  0  0  0  0  0
    0.9311   -1.4234    0.0000 C   0  0  0  0  0  0  0  0  0
    1.6455   -1.8359    0.0000 C   0  0  0  0  0  0  0  0  0
    2.3600   -1.4234    0.0000 C   0  0  0  0  0  0  0  0  0
    2.3600   -0.5984    0.0000 C   0  0  0  0  0  0  0  0  0
    1.6455   -0.1859    0.0000 C   0  0  0  0  0  0  0  0  0
    0.9311   -0.5984    0.0000 C   0  0  0  0  0  0  0  0  0
    3.0745   -0.1859    0.0000 C   0  0  0  0  0  0  0  0  0
    3.7889   -0.5984    0.0000 C   0  0  0  0  0  0  0  0  0
    3.7889   -1.4234    0.0000 C   0  0  0  0  0  0  0  0  0
    3.0745   -1.8359    0.0000 C   0  0  0  0  0  0  0  0  0
    1.6455   -4.3109    0.0000 C   0  0  0  0  0  0  0  0  0
  1  2  1  0  0  0  0
  1 20  1  0  0  0  0
  2  3  2  0  0  0  0
  2  4  1  0  0  0  0
  4  5  4  0  0  0  0
  4  9  4  0  0  0  0
  5  6  4  0  0  0  0
  6  7  4  0  0  0  0
  7  8  4  0  0  0  0
  8  9  4  0  0  0  0
  9 10  1  0  0  0  0
 10 11  4  0  0  0  0
 10 15  4  0  0  0  0
 11 12  4  0  0  0  0
 12 13  4  0  0  0  0
 12 19  4  0  0  0  0
 13 14  4  0  0  0  0
 13 16  4  0  0  0  0
 14 15  4  0  0  0  0
 16 17  4  0  0  0  0
 17 18  4  0  0  0  0
 18 19  4  0  0  0  0
M  END
>  <Name_Molregno>
165576

>  <Dopamine transporter>
5.39

>  <Norepinephrine transporter>
4.33

>  <Serotonin transporter>
3.21

$$$$
172642
  Marvin  02231216192D 0   1.00000     0.00000     0

 20 21  0  0  0  0  0  0  0  0999 V2000
   -0.2296    0.0039    0.0000 S   0  0  0  0  0  0  0  0  0
   -0.2296   -0.8211    0.0000 C   0  0  0  0  0  0  0  0  0
    0.4849   -1.2336    0.0000 C   0  0  0  0  0  0  0  0  0
    0.4849   -2.0586    0.0000 C   0  0  0  0  0  0  0  0  0
   -0.2296   -2.4711    0.0000 C   0  0  0  0  0  0  0  0  0
   -0.9440   -2.0586    0.0000 C   0  0  0  0  0  0  0  0  0
   -0.9440   -1.2336    0.0000 C   0  0  0  0  0  0  0  0  0
   -1.6585   -0.8211    0.0000 C   0  0  0  0  0  0  0  0  0
   -2.3730   -1.2336    0.0000 N   0  0  0  0  0  0  0  0  0
   -3.0875   -0.8211    0.0000 C   0  0  0  0  0  0  0  0  0
   -2.3730   -2.0586    0.0000 C   0  0  0  0  0  0  0  0  0
    0.4849    0.4164    0.0000 C   0  0  0  0  0  0  0  0  0
    0.4849    1.2414    0.0000 C   0  0  0  0  0  0  0  0  0
    1.1994    1.6539    0.0000 C   0  0  0  0  0  0  0  0  0
    1.9138    1.2414    0.0000 C   0  0  0  0  0  0  0  0  0
    1.9138    0.4164    0.0000 C   0  0  0  0  0  0  0  0  0
    1.1994    0.0039    0.0000 C   0  0  0  0  0  0  0  0  0
    1.1994   -0.8211    0.0000 N   0  0  0  0  0  0  0  0  0
    2.6283    1.6539    0.0000 C   0  0  0  0  0  0  0  0  0
    3.3428    2.0664    0.0000 N   0  0  0  0  0  0  0  0  0
  1  2  1  0  0  0  0
  1 12  1  0  0  0  0
  2  3  4  0  0  0  0
  2  7  4  0  0  0  0
  3  4  4  0  0  0  0
  4  5  4  0  0  0  0
  5  6  4  0  0  0  0
  6  7  4  0  0  0  0
  7  8  1  0  0  0  0
  8  9  1  0  0  0  0
  9 10  1  0  0  0  0
  9 11  1  0  0  0  0
 12 13  4  0  0  0  0
 12 17  4  0  0  0  0
 13 14  4  0  0  0  0
 14 15  4  0  0  0  0
 15 16  4  0  0  0  0
 15 19  1  0  0  0  0
 16 17  4  0  0  0  0
 17 18  1  0  0  0  0
 19 20  3  0  0  0  0
M  END
>  <Name_Molregno>
172642

>  <Dopamine transporter>
5

>  <Norepinephrine transporter>
5.29

>  <Serotonin transporter>
8.95

$$$$
183149
  Marvin  02231216192D 0   1.00000     0.00000     0

 22 25  0  0  1  0  0  0  0  0999 V2000
   -3.6234   -2.9549    0.0000 O   0  0  0  0  0  0  0  0  0
   -4.3379   -3.3674    0.0000 C   0  0  0  0  0  0  0  0  0
   -3.6234   -2.1299    0.0000 C   0  0  0  0  0  0  0  0  0
   -2.9089   -1.7174    0.0000 C   0  0  0  0  0  0  0  0  0
   -2.9089   -0.8924    0.0000 C   0  0  0  0  0  0  0  0  0
   -3.6234   -0.4799    0.0000 C   0  0  0  0  0  0  0  0  0
   -3.6234    0.3451    0.0000 C   0  0  0  0  0  0  0  0  0
   -2.9089    0.7576    0.0000 C   0  0  0  0  0  0  0  0  0
   -2.1945    0.3451    0.0000 C   0  0  0  0  0  0  0  0  0
   -2.1945   -0.4799    0.0000 C   0  0  0  0  0  0  0  0  0
   -2.9089    1.5826    0.0000 C   0  0  0  0  0  0  0  0  0
   -2.6526    2.4121    0.0000 C   0  0  0  0  0  0  0  0  0
   -3.7109    3.5272    0.0000 C   0  0  0  0  0  0  0  0  0
   -3.0123    3.0773    0.0000 C   0  0  0  0  0  0  0  0  0
   -2.1255    3.3281    0.0000 C   0  0  0  0  0  0  0  0  0
   -1.8794    2.6819    0.0000 C   0  0  0  0  0  0  0  0  0
   -3.1317    2.3037    0.0000 C   0  0  0  0  0  0  0  0  0
   -3.9545    2.2434    0.0000 C   0  0  0  0  0  0  0  0  0
   -4.4182    2.9257    0.0000 N   0  0  0  0  0  0  0  0  0
   -5.2410    2.8653    0.0000 C   0  0  0  0  0  0  0  0  0
   -4.3379   -0.8924    0.0000 C   0  0  0  0  0  0  0  0  0
   -4.3379   -1.7174    0.0000 C   0  0  0  0  0  0  0  0  0
  1  2  1  0  0  0  0
  1  3  1  0  0  0  0
  3  4  4  0  0  0  0
  3 22  4  0  0  0  0
  4  5  4  0  0  0  0
  5  6  4  0  0  0  0
  5 10  4  0  0  0  0
  6  7  4  0  0  0  0
  6 21  4  0  0  0  0
  7  8  4  0  0  0  0
  8  9  4  0  0  0  0
  8 11  1  0  0  0  0
  9 10  4  0  0  0  0
 11 12  1  0  0  0  0
 11 17  1  0  0  0  0
 12 13  1  0  0  0  0
 12 16  1  0  0  0  0
 13 14  1  0  0  0  0
 14 15  1  0  0  0  0
 14 17  1  0  0  0  0
 15 16  1  0  0  0  0
 17 18  1  0  0  0  0
 18 19  1  0  0  0  0
 19 20  1  0  0  0  0
 21 22  4  0  0  0  0
M  END
>  <Name_Molregno>
183149

>  <Norepinephrine transporter>
6.92

$$$$
183190
  Marvin  02231216192D 0   1.00000     0.00000     0

 20 23  0  0  1  0  0  0  0  0999 V2000
    0.3139   -1.5055    0.0000 N   0  0  0  0  0  0  0  0  0
    0.6730   -2.2482    0.0000 C   0  0  0  0  0  0  0  0  0
    1.4958   -2.3086    0.0000 C   0  0  0  0  0  0  0  0  0
    2.3043   -2.6249    0.0000 C   0  0  0  0  0  0  0  0  0
    3.4939   -1.6511    0.0000 C   0  0  0  0  0  0  0  0  0
    2.9940   -2.3149    0.0000 C   0  0  0  0  0  0  0  0  0
    3.1792   -3.2177    0.0000 C   0  0  0  0  0  0  0  0  0
    2.5167   -3.4159    0.0000 C   0  0  0  0  0  0  0  0  0
    2.2313   -2.1392    0.0000 C   0  0  0  0  0  0  0  0  0
    2.2313   -1.3142    0.0000 C   0  0  0  0  0  0  0  0  0
    2.9458   -0.9017    0.0000 C   0  0  0  0  0  0  0  0  0
    2.9458   -0.0767    0.0000 C   0  0  0  0  0  0  0  0  0
    2.2313    0.3358    0.0000 C   0  0  0  0  0  0  0  0  0
    1.5168   -0.0767    0.0000 C   0  0  0  0  0  0  0  0  0
    1.5168   -0.9017    0.0000 C   0  0  0  0  0  0  0  0  0
    2.2313    1.1608    0.0000 C   0  0  0  0  0  0  0  0  0
    2.9458    1.5733    0.0000 C   0  0  0  0  0  0  0  0  0
    3.6602    1.1608    0.0000 C   0  0  0  0  0  0  0  0  0
    3.6602    0.3358    0.0000 C   0  0  0  0  0  0  0  0  0
   -0.5089   -1.4451    0.0000 C   0  0  0  0  0  0  0  0  0
  1  2  1  0  0  0  0
  1 20  1  0  0  0  0
  2  3  1  0  0  0  0
  3  4  1  0  0  0  0
  3  9  1  0  0  0  0
  4  5  1  0  0  0  0
  4  8  1  0  0  0  0
  5  6  1  0  0  0  0
  6  7  1  0  0  0  0
  6  9  1  0  0  0  0
  7  8  1  0  0  0  0
  9 10  1  0  0  0  0
 10 11  4  0  0  0  0
 10 15  4  0  0  0  0
 11 12  4  0  0  0  0
 12 13  4  0  0  0  0
 12 19  4  0  0  0  0
 13 14  4  0  0  0  0
 13 16  4  0  0  0  0
 14 15  4  0  0  0  0
 16 17  4  0  0  0  0
 17 18  4  0  0  0  0
 18 19  4  0  0  0  0
M  END
>  <Name_Molregno>
183190

>  <Norepinephrine transporter>
6.79

$$$$
183225
  Marvin  02231216192D 0   1.00000     0.00000     0

 21 24  0  0  1  0  0  0  0  0999 V2000
    0.4531   -0.9068    0.0000 N   0  0  0  0  0  0  0  0  0
    0.8122   -1.6496    0.0000 C   0  0  0  0  0  0  0  0  0
    1.6350   -1.7100    0.0000 C   0  0  0  0  0  0  0  0  0
    2.4435   -2.0263    0.0000 C   0  0  0  0  0  0  0  0  0
    3.6331   -1.0525    0.0000 C   0  0  0  0  0  0  0  0  0
    3.1332   -1.7162    0.0000 C   0  0  0  0  0  0  0  0  0
    3.3184   -2.6190    0.0000 C   0  0  0  0  0  0  0  0  0
    2.6559   -2.8172    0.0000 C   0  0  0  0  0  0  0  0  0
    2.3705   -1.5405    0.0000 C   0  0  0  0  0  0  0  0  0
    2.3705   -0.7155    0.0000 C   0  0  0  0  0  0  0  0  0
    3.0850   -0.3030    0.0000 C   0  0  0  0  0  0  0  0  0
    3.0850    0.5220    0.0000 C   0  0  0  0  0  0  0  0  0
    2.3705    0.9345    0.0000 C   0  0  0  0  0  0  0  0  0
    1.6560    0.5220    0.0000 C   0  0  0  0  0  0  0  0  0
    1.6560   -0.3030    0.0000 C   0  0  0  0  0  0  0  0  0
    2.3705    1.7595    0.0000 C   0  0  0  0  0  0  0  0  0
    3.0850    2.1720    0.0000 C   0  0  0  0  0  0  0  0  0
    3.7994    1.7595    0.0000 C   0  0  0  0  0  0  0  0  0
    3.7994    0.9345    0.0000 C   0  0  0  0  0  0  0  0  0
   -0.3697   -0.8464    0.0000 C   0  0  0  0  0  0  0  0  0
    0.9168   -0.2245    0.0000 C   0  0  0  0  0  0  0  0  0
  1  2  1  0  0  0  0
  1 20  1  0  0  0  0
  1 21  1  0  0  0  0
  2  3  1  0  0  0  0
  3  4  1  0  0  0  0
  3  9  1  0  0  0  0
  4  5  1  0  0  0  0
  4  8  1  0  0  0  0
  5  6  1  0  0  0  0
  6  7  1  0  0  0  0
  6  9  1  0  0  0  0
  7  8  1  0  0  0  0
  9 10  1  0  0  0  0
 10 11  4  0  0  0  0
 10 15  4  0  0  0  0
 11 12  4  0  0  0  0
 12 13  4  0  0  0  0
 12 19  4  0  0  0  0
 13 14  4  0  0  0  0
 13 16  4  0  0  0  0
 14 15  4  0  0  0  0
 16 17  4  0  0  0  0
 17 18  4  0  0  0  0
 18 19  4  0  0  0  0
M  END
>  <Name_Molregno>
183225

>  <Norepinephrine transporter>
6.87

$$$$
183226
  Marvin  02231216192D 0   1.00000     0.00000     0

 21 24  0  0  1  0  0  0  0  0999 V2000
    1.2518   -2.6006    0.0000 N   0  0  0  0  0  0  0  0  0
    2.0746   -2.6609    0.0000 C   0  0  0  0  0  0  0  0  0
    2.5383   -1.9786    0.0000 C   0  0  0  0  0  0  0  0  0
    3.2165   -1.4366    0.0000 C   0  0  0  0  0  0  0  0  0
    2.9680    0.0806    0.0000 C   0  0  0  0  0  0  0  0  0
    3.2929   -0.6842    0.0000 C   0  0  0  0  0  0  0  0  0
    4.1673   -0.9752    0.0000 C   0  0  0  0  0  0  0  0  0
    4.0077   -1.6480    0.0000 C   0  0  0  0  0  0  0  0  0
    2.7594   -1.2569    0.0000 C   0  0  0  0  0  0  0  0  0
    2.0449   -0.8444    0.0000 C   0  0  0  0  0  0  0  0  0
    2.0449   -0.0194    0.0000 C   0  0  0  0  0  0  0  0  0
    1.3304    0.3931    0.0000 C   0  0  0  0  0  0  0  0  0
    0.6159   -0.0194    0.0000 C   0  0  0  0  0  0  0  0  0
    0.6159   -0.8444    0.0000 C   0  0  0  0  0  0  0  0  0
    1.3304   -1.2569    0.0000 C   0  0  0  0  0  0  0  0  0
    1.3304    1.2181    0.0000 C   0  0  0  0  0  0  0  0  0
    2.0449    1.6306    0.0000 C   0  0  0  0  0  0  0  0  0
    2.7594    1.2181    0.0000 C   0  0  0  0  0  0  0  0  0
    2.7594    0.3931    0.0000 C   0  0  0  0  0  0  0  0  0
    0.7881   -3.2829    0.0000 C   0  0  0  0  0  0  0  0  0
    0.8927   -1.8578    0.0000 C   0  0  0  0  0  0  0  0  0
  1  2  1  0  0  0  0
  1 20  1  0  0  0  0
  1 21  1  0  0  0  0
  2  3  1  0  0  0  0
  3  4  1  0  0  0  0
  3  9  1  0  0  0  0
  4  5  1  0  0  0  0
  4  8  1  0  0  0  0
  5  6  1  0  0  0  0
  6  7  1  0  0  0  0
  6  9  1  0  0  0  0
  7  8  1  0  0  0  0
  9 10  1  0  0  0  0
 10 11  4  0  0  0  0
 10 15  4  0  0  0  0
 11 12  4  0  0  0  0
 11 19  4  0  0  0  0
 12 13  4  0  0  0  0
 12 16  4  0  0  0  0
 13 14  4  0  0  0  0
 14 15  4  0  0  0  0
 16 17  4  0  0  0  0
 17 18  4  0  0  0  0
 18 19  4  0  0  0  0
M  END
>  <Name_Molregno>
183226

>  <Norepinephrine transporter>
6.74

$$$$
183814
  Marvin  02231216192D 0   1.00000     0.00000     0

 23 26  0  0  1  0  0  0  0  0999 V2000
   -3.7153   -3.0221    0.0000 O   0  0  0  0  0  0  0  0  0
   -4.4298   -3.4346    0.0000 C   0  0  0  0  0  0  0  0  0
   -3.7153   -2.1971    0.0000 C   0  0  0  0  0  0  0  0  0
   -3.0009   -1.7846    0.0000 C   0  0  0  0  0  0  0  0  0
   -3.0009   -0.9596    0.0000 C   0  0  0  0  0  0  0  0  0
   -3.7153   -0.5471    0.0000 C   0  0  0  0  0  0  0  0  0
   -3.7153    0.2779    0.0000 C   0  0  0  0  0  0  0  0  0
   -3.0009    0.6904    0.0000 C   0  0  0  0  0  0  0  0  0
   -2.2864    0.2779    0.0000 C   0  0  0  0  0  0  0  0  0
   -2.2864   -0.5471    0.0000 C   0  0  0  0  0  0  0  0  0
   -3.0009    1.5154    0.0000 C   0  0  0  0  0  0  0  0  0
   -2.7446    2.3449    0.0000 C   0  0  0  0  0  0  0  0  0
   -3.8029    3.4601    0.0000 C   0  0  0  0  0  0  0  0  0
   -3.1043    3.0101    0.0000 C   0  0  0  0  0  0  0  0  0
   -2.2175    3.2609    0.0000 C   0  0  0  0  0  0  0  0  0
   -1.9713    2.6147    0.0000 C   0  0  0  0  0  0  0  0  0
   -3.2237    2.2366    0.0000 C   0  0  0  0  0  0  0  0  0
   -4.0465    2.1762    0.0000 C   0  0  0  0  0  0  0  0  0
   -4.5102    2.8585    0.0000 N   0  0  0  0  0  0  0  0  0
   -5.3330    2.7981    0.0000 C   0  0  0  0  0  0  0  0  0
   -4.1511    3.6013    0.0000 C   0  0  0  0  0  0  0  0  0
   -4.4298   -0.9596    0.0000 C   0  0  0  0  0  0  0  0  0
   -4.4298   -1.7846    0.0000 C   0  0  0  0  0  0  0  0  0
  1  2  1  0  0  0  0
  1  3  1  0  0  0  0
  3  4  4  0  0  0  0
  3 23  4  0  0  0  0
  4  5  4  0  0  0  0
  5  6  4  0  0  0  0
  5 10  4  0  0  0  0
  6  7  4  0  0  0  0
  6 22  4  0  0  0  0
  7  8  4  0  0  0  0
  8  9  4  0  0  0  0
  8 11  1  0  0  0  0
  9 10  4  0  0  0  0
 11 12  1  0  0  0  0
 11 17  1  0  0  0  0
 12 13  1  0  0  0  0
 12 16  1  0  0  0  0
 13 14  1  0  0  0  0
 14 15  1  0  0  0  0
 14 17  1  0  0  0  0
 15 16  1  0  0  0  0
 17 18  1  0  0  0  0
 18 19  1  0  0  0  0
 19 20  1  0  0  0  0
 19 21  1  0  0  0  0
 22 23  4  0  0  0  0
M  END
>  <Name_Molregno>
183814

>  <Norepinephrine transporter>
7.17

$$$$
183891
  Marvin  02231216192D 0   1.00000     0.00000     0

 22 25  0  0  1  0  0  0  0  0999 V2000
    3.2305   -2.6806    0.0000 F   0  0  0  0  0  0  0  0  0
    3.2305   -1.8556    0.0000 C   0  0  0  0  0  0  0  0  0
    3.9450   -1.4431    0.0000 C   0  0  0  0  0  0  0  0  0
    3.9450   -0.6181    0.0000 C   0  0  0  0  0  0  0  0  0
    3.2305   -0.2056    0.0000 C   0  0  0  0  0  0  0  0  0
    3.2305    0.6194    0.0000 C   0  0  0  0  0  0  0  0  0
    3.9450    1.0319    0.0000 C   0  0  0  0  0  0  0  0  0
    4.6594    0.6194    0.0000 C   0  0  0  0  0  0  0  0  0
    4.6594   -0.2056    0.0000 C   0  0  0  0  0  0  0  0  0
    3.9450    1.8569    0.0000 C   0  0  0  0  0  0  0  0  0
    4.2012    2.6864    0.0000 C   0  0  0  0  0  0  0  0  0
    3.1429    3.8016    0.0000 C   0  0  0  0  0  0  0  0  0
    3.8415    3.3517    0.0000 C   0  0  0  0  0  0  0  0  0
    4.7283    3.6025    0.0000 C   0  0  0  0  0  0  0  0  0
    4.9745    2.9562    0.0000 C   0  0  0  0  0  0  0  0  0
    3.7221    2.5781    0.0000 C   0  0  0  0  0  0  0  0  0
    2.8994    2.5177    0.0000 C   0  0  0  0  0  0  0  0  0
    2.4357    3.2001    0.0000 N   0  0  0  0  0  0  0  0  0
    1.6129    3.1397    0.0000 C   0  0  0  0  0  0  0  0  0
    2.7948    3.9428    0.0000 C   0  0  0  0  0  0  0  0  0
    2.5160   -0.6181    0.0000 C   0  0  0  0  0  0  0  0  0
    2.5160   -1.4431    0.0000 C   0  0  0  0  0  0  0  0  0
  1  2  1  0  0  0  0
  2  3  4  0  0  0  0
  2 22  4  0  0  0  0
  3  4  4  0  0  0  0
  4  5  4  0  0  0  0
  4  9  4  0  0  0  0
  5  6  4  0  0  0  0
  5 21  4  0  0  0  0
  6  7  4  0  0  0  0
  7  8  4  0  0  0  0
  7 10  1  0  0  0  0
  8  9  4  0  0  0  0
 10 11  1  0  0  0  0
 10 16  1  0  0  0  0
 11 12  1  0  0  0  0
 11 15  1  0  0  0  0
 12 13  1  0  0  0  0
 13 14  1  0  0  0  0
 13 16  1  0  0  0  0
 14 15  1  0  0  0  0
 16 17  1  0  0  0  0
 17 18  1  0  0  0  0
 18 19  1  0  0  0  0
 18 20  1  0  0  0  0
 21 22  4  0  0  0  0
M  END
>  <Name_Molregno>
183891

>  <Norepinephrine transporter>
6.41

$$$$
183892
  Marvin  02231216192D 0   1.00000     0.00000     0

 19 21  0  0  1  0  0  0  0  0999 V2000
   -1.0582   -4.8725    0.0000 Cl  0  0  0  0  0  0  0  0  0
   -0.7521   -4.1064    0.0000 C   0  0  0  0  0  0  0  0  0
   -1.2626   -3.4583    0.0000 C   0  0  0  0  0  0  0  0  0
   -0.9565   -2.6922    0.0000 C   0  0  0  0  0  0  0  0  0
   -0.1399   -2.5742    0.0000 C   0  0  0  0  0  0  0  0  0
    0.3705   -3.2223    0.0000 C   0  0  0  0  0  0  0  0  0
    0.0644   -3.9884    0.0000 C   0  0  0  0  0  0  0  0  0
   -1.4669   -2.0440    0.0000 C   0  0  0  0  0  0  0  0  0
   -2.2154   -1.6971    0.0000 C   0  0  0  0  0  0  0  0  0
   -3.0547   -2.0560    0.0000 C   0  0  0  0  0  0  0  0  0
   -3.1619   -1.3006    0.0000 C   0  0  0  0  0  0  0  0  0
   -2.3581   -0.9487    0.0000 C   0  0  0  0  0  0  0  0  0
   -2.3204   -0.0526    0.0000 C   0  0  0  0  0  0  0  0  0
   -2.0757   -0.6585    0.0000 C   0  0  0  0  0  0  0  0  0
   -1.6195   -1.2810    0.0000 C   0  0  0  0  0  0  0  0  0
   -0.9742   -0.7670    0.0000 C   0  0  0  0  0  0  0  0  0
   -0.2064   -1.0688    0.0000 N   0  0  0  0  0  0  0  0  0
    0.4388   -0.5547    0.0000 C   0  0  0  0  0  0  0  0  0
   -0.0839   -1.8846    0.0000 C   0  0  0  0  0  0  0  0  0
  1  2  1  0  0  0  0
  2  3  4  0  0  0  0
  2  7  4  0  0  0  0
  3  4  4  0  0  0  0
  4  5  4  0  0  0  0
  4  8  1  0  0  0  0
  5  6  4  0  0  0  0
  6  7  4  0  0  0  0
  8  9  1  0  0  0  0
  8 15  1  0  0  0  0
  9 10  1  0  0  0  0
  9 14  1  0  0  0  0
 10 11  1  0  0  0  0
 11 12  1  0  0  0  0
 12 13  1  0  0  0  0
 12 15  1  0  0  0  0
 13 14  1  0  0  0  0
 15 16  1  0  0  0  0
 16 17  1  0  0  0  0
 17 18  1  0  0  0  0
 17 19  1  0  0  0  0
M  END
>  <Name_Molregno>
183892

>  <Norepinephrine transporter>
7.29

$$$$
183893
  Marvin  02231216192D 0   1.00000     0.00000     0

 22 25  0  0  1  0  0  0  0  0999 V2000
    3.2305   -2.6806    0.0000 O   0  0  0  0  0  0  0  0  0
    3.2305   -1.8556    0.0000 C   0  0  0  0  0  0  0  0  0
    3.9450   -1.4431    0.0000 C   0  0  0  0  0  0  0  0  0
    3.9450   -0.6181    0.0000 C   0  0  0  0  0  0  0  0  0
    3.2305   -0.2056    0.0000 C   0  0  0  0  0  0  0  0  0
    3.2305    0.6194    0.0000 C   0  0  0  0  0  0  0  0  0
    3.9450    1.0319    0.0000 C   0  0  0  0  0  0  0  0  0
    4.6594    0.6194    0.0000 C   0  0  0  0  0  0  0  0  0
    4.6594   -0.2056    0.0000 C   0  0  0  0  0  0  0  0  0
    3.9450    1.8569    0.0000 C   0  0  0  0  0  0  0  0  0
    4.2012    2.6864    0.0000 C   0  0  0  0  0  0  0  0  0
    3.1429    3.8016    0.0000 C   0  0  0  0  0  0  0  0  0
    3.8415    3.3517    0.0000 C   0  0  0  0  0  0  0  0  0
    4.7283    3.6025    0.0000 C   0  0  0  0  0  0  0  0  0
    4.9745    2.9562    0.0000 C   0  0  0  0  0  0  0  0  0
    3.7221    2.5781    0.0000 C   0  0  0  0  0  0  0  0  0
    2.8994    2.5177    0.0000 C   0  0  0  0  0  0  0  0  0
    2.4357    3.2001    0.0000 N   0  0  0  0  0  0  0  0  0
    1.6129    3.1397    0.0000 C   0  0  0  0  0  0  0  0  0
    2.7948    3.9428    0.0000 C   0  0  0  0  0  0  0  0  0
    2.5160   -0.6181    0.0000 C   0  0  0  0  0  0  0  0  0
    2.5160   -1.4431    0.0000 C   0  0  0  0  0  0  0  0  0
  1  2  1  0  0  0  0
  2  3  4  0  0  0  0
  2 22  4  0  0  0  0
  3  4  4  0  0  0  0
  4  5  4  0  0  0  0
  4  9  4  0  0  0  0
  5  6  4  0  0  0  0
  5 21  4  0  0  0  0
  6  7  4  0  0  0  0
  7  8  4  0  0  0  0
  7 10  1  0  0  0  0
  8  9  4  0  0  0  0
 10 11  1  0  0  0  0
 10 16  1  0  0  0  0
 11 12  1  0  0  0  0
 11 15  1  0  0  0  0
 12 13  1  0  0  0  0
 13 14  1  0  0  0  0
 13 16  1  0  0  0  0
 14 15  1  0  0  0  0
 16 17  1  0  0  0  0
 17 18  1  0  0  0  0
 18 19  1  0  0  0  0
 18 20  1  0  0  0  0
 21 22  4  0  0  0  0
M  END
>  <Name_Molregno>
183893

>  <Norepinephrine transporter>
7.3

$$$$
183894
  Marvin  02231216192D 0   1.00000     0.00000     0

 21 24  0  0  1  0  0  0  0  0999 V2000
    3.0637   -2.5691    0.0000 F   0  0  0  0  0  0  0  0  0
    3.0637   -1.7441    0.0000 C   0  0  0  0  0  0  0  0  0
    3.7781   -1.3316    0.0000 C   0  0  0  0  0  0  0  0  0
    3.7781   -0.5066    0.0000 C   0  0  0  0  0  0  0  0  0
    3.0637   -0.0941    0.0000 C   0  0  0  0  0  0  0  0  0
    3.0637    0.7309    0.0000 C   0  0  0  0  0  0  0  0  0
    3.7781    1.1434    0.0000 C   0  0  0  0  0  0  0  0  0
    4.4926    0.7309    0.0000 C   0  0  0  0  0  0  0  0  0
    4.4926   -0.0941    0.0000 C   0  0  0  0  0  0  0  0  0
    3.7781    1.9684    0.0000 C   0  0  0  0  0  0  0  0  0
    4.0344    2.7979    0.0000 C   0  0  0  0  0  0  0  0  0
    2.9761    3.9130    0.0000 C   0  0  0  0  0  0  0  0  0
    3.6747    3.4631    0.0000 C   0  0  0  0  0  0  0  0  0
    4.5615    3.7139    0.0000 C   0  0  0  0  0  0  0  0  0
    4.8077    3.0677    0.0000 C   0  0  0  0  0  0  0  0  0
    3.5553    2.6895    0.0000 C   0  0  0  0  0  0  0  0  0
    2.7325    2.6292    0.0000 C   0  0  0  0  0  0  0  0  0
    2.2688    3.3115    0.0000 N   0  0  0  0  0  0  0  0  0
    1.4461    3.2511    0.0000 C   0  0  0  0  0  0  0  0  0
    2.3492   -0.5066    0.0000 C   0  0  0  0  0  0  0  0  0
    2.3492   -1.3316    0.0000 C   0  0  0  0  0  0  0  0  0
  1  2  1  0  0  0  0
  2  3  4  0  0  0  0
  2 21  4  0  0  0  0
  3  4  4  0  0  0  0
  4  5  4  0  0  0  0
  4  9  4  0  0  0  0
  5  6  4  0  0  0  0
  5 20  4  0  0  0  0
  6  7  4  0  0  0  0
  7  8  4  0  0  0  0
  7 10  1  0  0  0  0
  8  9  4  0  0  0  0
 10 11  1  0  0  0  0
 10 16  1  0  0  0  0
 11 12  1  0  0  0  0
 11 15  1  0  0  0  0
 12 13  1  0  0  0  0
 13 14  1  0  0  0  0
 13 16  1  0  0  0  0
 14 15  1  0  0  0  0
 16 17  1  0  0  0  0
 17 18  1  0  0  0  0
 18 19  1  0  0  0  0
 20 21  4  0  0  0  0
M  END
>  <Name_Molregno>
183894

>  <Norepinephrine transporter>
6.5

$$$$
192607
  Marvin  02231216192D 0   1.00000     0.00000     0

 28 30  0  0  1  0  0  0  0  0999 V2000
    3.5904    2.6030    0.0000 S   0  0  0  0  0  0  0  0  0
    3.8453    3.3876    0.0000 C   0  0  0  0  0  0  0  0  0
    4.6703    3.3876    0.0000 C   0  0  0  0  0  0  0  0  0
    4.9253    2.6030    0.0000 C   0  0  0  0  0  0  0  0  0
    4.2578    2.1181    0.0000 C   0  0  0  0  0  0  0  0  0
    4.2578    1.2931    0.0000 C   0  0  0  0  0  0  0  0  0
    3.5434    0.8806    0.0000 O   0  0  0  0  0  0  0  0  0
    3.5434    0.0556    0.0000 C   0  0  0  0  0  0  0  0  0
    2.8289   -0.3569    0.0000 C   0  0  0  0  0  0  0  0  0
    2.8289   -1.1819    0.0000 C   0  0  0  0  0  0  0  0  0
    3.5434   -1.5944    0.0000 C   0  0  0  0  0  0  0  0  0
    4.2578   -1.1819    0.0000 C   0  0  0  0  0  0  0  0  0
    4.2578   -0.3569    0.0000 C   0  0  0  0  0  0  0  0  0
    2.1144   -1.5944    0.0000 C   0  0  0  0  0  0  0  0  0
    2.1144   -2.4194    0.0000 O   0  0  0  0  0  0  0  0  0
    1.4000   -2.8319    0.0000 S   0  0  0  0  0  0  0  0  0
    0.9875   -2.1175    0.0000 O   0  0  0  0  0  0  0  0  0
    0.6855   -3.2444    0.0000 O   0  0  0  0  0  0  0  0  0
    1.8125   -3.5464    0.0000 O   0  0  0  0  0  0  0  0  0
    1.4000   -1.1819    0.0000 C   0  0  0  0  0  0  0  0  0
    0.6855   -1.5944    0.0000 O   0  0  0  0  0  0  0  0  0
   -0.0290   -1.1819    0.0000 C   0  0  0  0  0  0  0  0  0
    1.4000   -0.3569    0.0000 C   0  0  0  0  0  0  0  0  0
    2.1144    0.0556    0.0000 C   0  0  0  0  0  0  0  0  0
    4.9723    0.8806    0.0000 C   0  0  0  0  0  0  0  0  0
    5.6868    1.2931    0.0000 C   0  0  0  0  0  0  0  0  0
    6.4013    0.8806    0.0000 N   0  0  0  0  0  0  0  0  0
    6.4013    0.0556    0.0000 C   0  0  0  0  0  0  0  0  0
  1  2  4  0  0  0  0
  1  5  4  0  0  0  0
  2  3  4  0  0  0  0
  3  4  4  0  0  0  0
  4  5  4  0  0  0  0
  5  6  1  0  0  0  0
  6  7  1  0  0  0  0
  6 25  1  0  0  0  0
  7  8  1  0  0  0  0
  8  9  4  0  0  0  0
  8 13  4  0  0  0  0
  9 10  4  0  0  0  0
  9 24  4  0  0  0  0
 10 11  4  0  0  0  0
 10 14  4  0  0  0  0
 11 12  4  0  0  0  0
 12 13  4  0  0  0  0
 14 15  1  0  0  0  0
 14 20  4  0  0  0  0
 15 16  1  0  0  0  0
 16 17  2  0  0  0  0
 16 18  2  0  0  0  0
 16 19  1  0  0  0  0
 20 21  1  0  0  0  0
 20 23  4  0  0  0  0
 21 22  1  0  0  0  0
 23 24  4  0  0  0  0
 25 26  1  0  0  0  0
 26 27  1  0  0  0  0
 27 28  1  0  0  0  0
M  END
>  <Name_Molregno>
192607

>  <Dopamine transporter>
2

>  <Norepinephrine transporter>
2

>  <Serotonin transporter>
2.51

$$$$
192608
  Marvin  02231216192D 0   1.00000     0.00000     0

 34 37  0  0  1  0  0  0  0  0999 V2000
   -0.8331    1.2193    0.0000 S   0  0  0  0  0  0  0  0  0
   -0.5781    2.0039    0.0000 C   0  0  0  0  0  0  0  0  0
    0.2469    2.0039    0.0000 C   0  0  0  0  0  0  0  0  0
    0.5018    1.2193    0.0000 C   0  0  0  0  0  0  0  0  0
   -0.1656    0.7344    0.0000 C   0  0  0  0  0  0  0  0  0
   -0.1656   -0.0906    0.0000 C   0  0  0  0  0  0  0  0  0
   -0.8801   -0.5031    0.0000 O   0  0  0  0  0  0  0  0  0
   -0.8801   -1.3281    0.0000 C   0  0  0  0  0  0  0  0  0
   -1.5946   -1.7406    0.0000 C   0  0  0  0  0  0  0  0  0
   -1.5946   -2.5656    0.0000 C   0  0  0  0  0  0  0  0  0
   -2.3090   -2.9781    0.0000 C   0  0  0  0  0  0  0  0  0
   -3.0235   -2.5656    0.0000 C   0  0  0  0  0  0  0  0  0
   -3.7380   -2.9781    0.0000 O   0  0  0  0  0  0  0  0  0
   -4.4525   -2.5656    0.0000 C   0  0  0  0  0  0  0  0  0
   -5.1669   -2.9781    0.0000 O   0  0  0  0  0  0  0  0  0
   -5.8814   -2.5656    0.0000 C   0  0  0  0  0  0  0  0  0
   -6.5959   -2.9781    0.0000 C   0  0  0  0  0  0  0  0  0
   -7.3103   -2.5656    0.0000 O   0  0  0  0  0  0  0  0  0
   -6.5959   -3.8031    0.0000 O   0  0  0  0  0  0  0  0  0
   -5.8814   -1.7406    0.0000 C   0  0  0  0  0  0  0  0  0
   -6.5959   -1.3281    0.0000 O   0  0  0  0  0  0  0  0  0
   -5.1669   -1.3281    0.0000 C   0  0  0  0  0  0  0  0  0
   -5.1669   -0.5031    0.0000 O   0  0  0  0  0  0  0  0  0
   -4.4525   -1.7406    0.0000 C   0  0  0  0  0  0  0  0  0
   -3.7380   -1.3281    0.0000 O   0  0  0  0  0  0  0  0  0
   -3.0235   -1.7406    0.0000 C   0  0  0  0  0  0  0  0  0
   -2.3090   -1.3281    0.0000 C   0  0  0  0  0  0  0  0  0
   -0.8801   -2.9781    0.0000 C   0  0  0  0  0  0  0  0  0
   -0.1656   -2.5656    0.0000 C   0  0  0  0  0  0  0  0  0
   -0.1656   -1.7406    0.0000 C   0  0  0  0  0  0  0  0  0
    0.5488   -0.5031    0.0000 C   0  0  0  0  0  0  0  0  0
    1.2633   -0.0906    0.0000 C   0  0  0  0  0  0  0  0  0
    1.9778   -0.5031    0.0000 N   0  0  0  0  0  0  0  0  0
    1.9778   -1.3281    0.0000 C   0  0  0  0  0  0  0  0  0
  1  2  4  0  0  0  0
  1  5  4  0  0  0  0
  2  3  4  0  0  0  0
  3  4  4  0  0  0  0
  4  5  4  0  0  0  0
  5  6  1  0  0  0  0
  6  7  1  0  0  0  0
  6 31  1  0  0  0  0
  7  8  1  0  0  0  0
  8  9  4  0  0  0  0
  8 30  4  0  0  0  0
  9 10  4  0  0  0  0
  9 27  4  0  0  0  0
 10 11  4  0  0  0  0
 10 28  4  0  0  0  0
 11 12  4  0  0  0  0
 12 13  1  0  0  0  0
 12 26  4  0  0  0  0
 13 14  1  0  0  0  0
 14 15  1  0  0  0  0
 14 24  1  0  0  0  0
 15 16  1  0  0  0  0
 16 17  1  0  0  0  0
 16 20  1  0  0  0  0
 17 18  1  0  0  0  0
 17 19  2  0  0  0  0
 20 21  1  0  0  0  0
 20 22  1  0  0  0  0
 22 23  1  0  0  0  0
 22 24  1  0  0  0  0
 24 25  1  0  0  0  0
 26 27  4  0  0  0  0
 28 29  4  0  0  0  0
 29 30  4  0  0  0  0
 31 32  1  0  0  0  0
 32 33  1  0  0  0  0
 33 34  1  0  0  0  0
M  END
>  <Name_Molregno>
192608

>  <Dopamine transporter>
2

>  <Norepinephrine transporter>
2.26

>  <Serotonin transporter>
2.84

$$$$
192634
  Marvin  02231216192D 0   1.00000     0.00000     0

 22 24  0  0  1  0  0  0  0  0999 V2000
    2.0626    2.3235    0.0000 S   0  0  0  0  0  0  0  0  0
    2.3175    3.1081    0.0000 C   0  0  0  0  0  0  0  0  0
    3.1425    3.1081    0.0000 C   0  0  0  0  0  0  0  0  0
    3.3975    2.3235    0.0000 C   0  0  0  0  0  0  0  0  0
    2.7300    1.8385    0.0000 C   0  0  0  0  0  0  0  0  0
    2.7300    1.0135    0.0000 C   0  0  0  0  0  0  0  0  0
    2.0155    0.6010    0.0000 O   0  0  0  0  0  0  0  0  0
    2.0155   -0.2240    0.0000 C   0  0  0  0  0  0  0  0  0
    1.3011   -0.6365    0.0000 C   0  0  0  0  0  0  0  0  0
    1.3011   -1.4615    0.0000 C   0  0  0  0  0  0  0  0  0
    0.5866   -1.8740    0.0000 C   0  0  0  0  0  0  0  0  0
   -0.1279   -1.4615    0.0000 C   0  0  0  0  0  0  0  0  0
   -0.1279   -0.6365    0.0000 C   0  0  0  0  0  0  0  0  0
    0.5866   -0.2240    0.0000 C   0  0  0  0  0  0  0  0  0
    2.0155   -1.8740    0.0000 C   0  0  0  0  0  0  0  0  0
    2.0155   -2.6990    0.0000 O   0  0  0  0  0  0  0  0  0
    2.7300   -1.4615    0.0000 C   0  0  0  0  0  0  0  0  0
    2.7300   -0.6365    0.0000 C   0  0  0  0  0  0  0  0  0
    3.4445    0.6010    0.0000 C   0  0  0  0  0  0  0  0  0
    4.1590    1.0135    0.0000 C   0  0  0  0  0  0  0  0  0
    4.8734    0.6010    0.0000 N   0  0  0  0  0  0  0  0  0
    4.8734   -0.2240    0.0000 C   0  0  0  0  0  0  0  0  0
  1  2  4  0  0  0  0
  1  5  4  0  0  0  0
  2  3  4  0  0  0  0
  3  4  4  0  0  0  0
  4  5  4  0  0  0  0
  5  6  1  0  0  0  0
  6  7  1  0  0  0  0
  6 19  1  0  0  0  0
  7  8  1  0  0  0  0
  8  9  4  0  0  0  0
  8 18  4  0  0  0  0
  9 10  4  0  0  0  0
  9 14  4  0  0  0  0
 10 11  4  0  0  0  0
 10 15  4  0  0  0  0
 11 12  4  0  0  0  0
 12 13  4  0  0  0  0
 13 14  4  0  0  0  0
 15 16  1  0  0  0  0
 15 17  4  0  0  0  0
 17 18  4  0  0  0  0
 19 20  1  0  0  0  0
 20 21  1  0  0  0  0
 21 22  1  0  0  0  0
M  END
>  <Name_Molregno>
192634

>  <Dopamine transporter>
3.89

>  <Norepinephrine transporter>
4.01

>  <Serotonin transporter>
4.19

$$$$
192635
  Marvin  02231216192D 0   1.00000     0.00000     0

 22 24  0  0  1  0  0  0  0  0999 V2000
    2.1413    2.7610    0.0000 S   0  0  0  0  0  0  0  0  0
    2.3962    3.5456    0.0000 C   0  0  0  0  0  0  0  0  0
    3.2212    3.5456    0.0000 C   0  0  0  0  0  0  0  0  0
    3.4762    2.7610    0.0000 C   0  0  0  0  0  0  0  0  0
    2.8087    2.2761    0.0000 C   0  0  0  0  0  0  0  0  0
    2.8087    1.4511    0.0000 C   0  0  0  0  0  0  0  0  0
    2.0942    1.0386    0.0000 O   0  0  0  0  0  0  0  0  0
    2.0942    0.2136    0.0000 C   0  0  0  0  0  0  0  0  0
    1.3798   -0.1989    0.0000 C   0  0  0  0  0  0  0  0  0
    1.3798   -1.0239    0.0000 C   0  0  0  0  0  0  0  0  0
    0.6653   -1.4364    0.0000 C   0  0  0  0  0  0  0  0  0
   -0.0492   -1.0239    0.0000 C   0  0  0  0  0  0  0  0  0
   -0.7636   -1.4364    0.0000 O   0  0  0  0  0  0  0  0  0
   -0.0492   -0.1989    0.0000 C   0  0  0  0  0  0  0  0  0
    0.6653    0.2136    0.0000 C   0  0  0  0  0  0  0  0  0
    2.0942   -1.4364    0.0000 C   0  0  0  0  0  0  0  0  0
    2.8087   -1.0239    0.0000 C   0  0  0  0  0  0  0  0  0
    2.8087   -0.1989    0.0000 C   0  0  0  0  0  0  0  0  0
    3.5232    1.0386    0.0000 C   0  0  0  0  0  0  0  0  0
    4.2377    1.4511    0.0000 C   0  0  0  0  0  0  0  0  0
    4.9521    1.0386    0.0000 N   0  0  0  0  0  0  0  0  0
    4.9521    0.2136    0.0000 C   0  0  0  0  0  0  0  0  0
  1  2  4  0  0  0  0
  1  5  4  0  0  0  0
  2  3  4  0  0  0  0
  3  4  4  0  0  0  0
  4  5  4  0  0  0  0
  5  6  1  0  0  0  0
  6  7  1  0  0  0  0
  6 19  1  0  0  0  0
  7  8  1  0  0  0  0
  8  9  4  0  0  0  0
  8 18  4  0  0  0  0
  9 10  4  0  0  0  0
  9 15  4  0  0  0  0
 10 11  4  0  0  0  0
 10 16  4  0  0  0  0
 11 12  4  0  0  0  0
 12 13  1  0  0  0  0
 12 14  4  0  0  0  0
 14 15  4  0  0  0  0
 16 17  4  0  0  0  0
 17 18  4  0  0  0  0
 19 20  1  0  0  0  0
 20 21  1  0  0  0  0
 21 22  1  0  0  0  0
M  END
>  <Name_Molregno>
192635

>  <Dopamine transporter>
3.79

>  <Norepinephrine transporter>
5.33

>  <Serotonin transporter>
5.97

$$$$
192643
  Marvin  02231216192D 0   1.00000     0.00000     0

 34 37  0  0  1  0  0  0  0  0999 V2000
    2.5599    2.6603    0.0000 S   0  0  0  0  0  0  0  0  0
    2.8148    3.4449    0.0000 C   0  0  0  0  0  0  0  0  0
    3.6398    3.4449    0.0000 C   0  0  0  0  0  0  0  0  0
    3.8947    2.6603    0.0000 C   0  0  0  0  0  0  0  0  0
    3.2273    2.1754    0.0000 C   0  0  0  0  0  0  0  0  0
    3.2273    1.3504    0.0000 C   0  0  0  0  0  0  0  0  0
    2.5128    0.9379    0.0000 O   0  0  0  0  0  0  0  0  0
    2.5128    0.1129    0.0000 C   0  0  0  0  0  0  0  0  0
    1.7984   -0.2996    0.0000 C   0  0  0  0  0  0  0  0  0
    1.7984   -1.1246    0.0000 C   0  0  0  0  0  0  0  0  0
    1.0839   -1.5371    0.0000 C   0  0  0  0  0  0  0  0  0
    0.3694   -1.1246    0.0000 C   0  0  0  0  0  0  0  0  0
    0.3694   -0.2996    0.0000 C   0  0  0  0  0  0  0  0  0
    1.0839    0.1129    0.0000 C   0  0  0  0  0  0  0  0  0
    2.5128   -1.5371    0.0000 C   0  0  0  0  0  0  0  0  0
    2.5128   -2.3621    0.0000 O   0  0  0  0  0  0  0  0  0
    3.2273   -2.7746    0.0000 C   0  0  0  0  0  0  0  0  0
    3.9418   -2.3621    0.0000 O   0  0  0  0  0  0  0  0  0
    4.6562   -2.7746    0.0000 C   0  0  0  0  0  0  0  0  0
    5.3707   -2.3621    0.0000 C   0  0  0  0  0  0  0  0  0
    6.0852   -2.7746    0.0000 O   0  0  0  0  0  0  0  0  0
    5.3707   -1.5371    0.0000 O   0  0  0  0  0  0  0  0  0
    4.6562   -3.5996    0.0000 C   0  0  0  0  0  0  0  0  0
    5.3707   -4.0121    0.0000 O   0  0  0  0  0  0  0  0  0
    3.9418   -4.0121    0.0000 C   0  0  0  0  0  0  0  0  0
    3.9418   -4.8371    0.0000 O   0  0  0  0  0  0  0  0  0
    3.2273   -3.5996    0.0000 C   0  0  0  0  0  0  0  0  0
    2.5128   -4.0121    0.0000 O   0  0  0  0  0  0  0  0  0
    3.2273   -1.1246    0.0000 C   0  0  0  0  0  0  0  0  0
    3.2273   -0.2996    0.0000 C   0  0  0  0  0  0  0  0  0
    3.9418    0.9379    0.0000 C   0  0  0  0  0  0  0  0  0
    4.6562    1.3504    0.0000 C   0  0  0  0  0  0  0  0  0
    5.3707    0.9379    0.0000 N   0  0  0  0  0  0  0  0  0
    5.3707    0.1129    0.0000 C   0  0  0  0  0  0  0  0  0
  1  2  4  0  0  0  0
  1  5  4  0  0  0  0
  2  3  4  0  0  0  0
  3  4  4  0  0  0  0
  4  5  4  0  0  0  0
  5  6  1  0  0  0  0
  6  7  1  0  0  0  0
  6 31  1  0  0  0  0
  7  8  1  0  0  0  0
  8  9  4  0  0  0  0
  8 30  4  0  0  0  0
  9 10  4  0  0  0  0
  9 14  4  0  0  0  0
 10 11  4  0  0  0  0
 10 15  4  0  0  0  0
 11 12  4  0  0  0  0
 12 13  4  0  0  0  0
 13 14  4  0  0  0  0
 15 16  1  0  0  0  0
 15 29  4  0  0  0  0
 16 17  1  0  0  0  0
 17 18  1  0  0  0  0
 17 27  1  0  0  0  0
 18 19  1  0  0  0  0
 19 20  1  0  0  0  0
 19 23  1  0  0  0  0
 20 21  1  0  0  0  0
 20 22  2  0  0  0  0
 23 24  1  0  0  0  0
 23 25  1  0  0  0  0
 25 26  1  0  0  0  0
 25 27  1  0  0  0  0
 27 28  1  0  0  0  0
 29 30  4  0  0  0  0
 31 32  1  0  0  0  0
 32 33  1  0  0  0  0
 33 34  1  0  0  0  0
M  END
>  <Name_Molregno>
192643

>  <Dopamine transporter>
2.45

>  <Norepinephrine transporter>
2

>  <Serotonin transporter>
2

$$$$
192644
  Marvin  02231216192D 0   1.00000     0.00000     0

 23 25  0  0  1  0  0  0  0  0999 V2000
    2.4353    2.2682    0.0000 S   0  0  0  0  0  0  0  0  0
    2.6902    3.0528    0.0000 C   0  0  0  0  0  0  0  0  0
    3.5152    3.0528    0.0000 C   0  0  0  0  0  0  0  0  0
    3.7701    2.2682    0.0000 C   0  0  0  0  0  0  0  0  0
    3.1027    1.7833    0.0000 C   0  0  0  0  0  0  0  0  0
    3.1027    0.9583    0.0000 C   0  0  0  0  0  0  0  0  0
    2.3882    0.5458    0.0000 O   0  0  0  0  0  0  0  0  0
    2.3882   -0.2792    0.0000 C   0  0  0  0  0  0  0  0  0
    1.6738   -0.6917    0.0000 C   0  0  0  0  0  0  0  0  0
    1.6738   -1.5167    0.0000 C   0  0  0  0  0  0  0  0  0
    2.3882   -1.9292    0.0000 C   0  0  0  0  0  0  0  0  0
    3.1027   -1.5167    0.0000 C   0  0  0  0  0  0  0  0  0
    3.1027   -0.6917    0.0000 C   0  0  0  0  0  0  0  0  0
    0.9593   -1.9292    0.0000 C   0  0  0  0  0  0  0  0  0
    0.9593   -2.7542    0.0000 O   0  0  0  0  0  0  0  0  0
    0.2448   -1.5167    0.0000 C   0  0  0  0  0  0  0  0  0
   -0.4696   -1.9292    0.0000 O   0  0  0  0  0  0  0  0  0
    0.2448   -0.6917    0.0000 C   0  0  0  0  0  0  0  0  0
    0.9593   -0.2792    0.0000 C   0  0  0  0  0  0  0  0  0
    3.8172    0.5458    0.0000 C   0  0  0  0  0  0  0  0  0
    4.5316    0.9583    0.0000 C   0  0  0  0  0  0  0  0  0
    5.2461    0.5458    0.0000 N   0  0  0  0  0  0  0  0  0
    5.2461   -0.2792    0.0000 C   0  0  0  0  0  0  0  0  0
  1  2  4  0  0  0  0
  1  5  4  0  0  0  0
  2  3  4  0  0  0  0
  3  4  4  0  0  0  0
  4  5  4  0  0  0  0
  5  6  1  0  0  0  0
  6  7  1  0  0  0  0
  6 20  1  0  0  0  0
  7  8  1  0  0  0  0
  8  9  4  0  0  0  0
  8 13  4  0  0  0  0
  9 10  4  0  0  0  0
  9 19  4  0  0  0  0
 10 11  4  0  0  0  0
 10 14  4  0  0  0  0
 11 12  4  0  0  0  0
 12 13  4  0  0  0  0
 14 15  1  0  0  0  0
 14 16  4  0  0  0  0
 16 17  1  0  0  0  0
 16 18  4  0  0  0  0
 18 19  4  0  0  0  0
 20 21  1  0  0  0  0
 21 22  1  0  0  0  0
 22 23  1  0  0  0  0
M  END
>  <Name_Molregno>
192644

>  <Dopamine transporter>
2.07

>  <Norepinephrine transporter>
3.21

>  <Serotonin transporter>
4.21

$$$$
192867
  Marvin  02231216192D 0   1.00000     0.00000     0

 24 26  0  0  1  0  0  0  0  0999 V2000
    2.6875    2.4170    0.0000 S   0  0  0  0  0  0  0  0  0
    2.9424    3.2016    0.0000 C   0  0  0  0  0  0  0  0  0
    3.7674    3.2016    0.0000 C   0  0  0  0  0  0  0  0  0
    4.0224    2.4170    0.0000 C   0  0  0  0  0  0  0  0  0
    3.3549    1.9320    0.0000 C   0  0  0  0  0  0  0  0  0
    3.3549    1.1070    0.0000 C   0  0  0  0  0  0  0  0  0
    2.6404    0.6945    0.0000 O   0  0  0  0  0  0  0  0  0
    2.6404   -0.1305    0.0000 C   0  0  0  0  0  0  0  0  0
    1.9260   -0.5430    0.0000 C   0  0  0  0  0  0  0  0  0
    1.9260   -1.3680    0.0000 C   0  0  0  0  0  0  0  0  0
    2.6404   -1.7805    0.0000 C   0  0  0  0  0  0  0  0  0
    3.3549   -1.3680    0.0000 C   0  0  0  0  0  0  0  0  0
    3.3549   -0.5430    0.0000 C   0  0  0  0  0  0  0  0  0
    1.2115   -1.7805    0.0000 C   0  0  0  0  0  0  0  0  0
    1.2115   -2.6055    0.0000 O   0  0  0  0  0  0  0  0  0
    0.4970   -3.0180    0.0000 C   0  0  0  0  0  0  0  0  0
    0.4970   -1.3680    0.0000 C   0  0  0  0  0  0  0  0  0
   -0.2174   -1.7805    0.0000 O   0  0  0  0  0  0  0  0  0
    0.4970   -0.5430    0.0000 C   0  0  0  0  0  0  0  0  0
    1.2115   -0.1305    0.0000 C   0  0  0  0  0  0  0  0  0
    4.0694    0.6945    0.0000 C   0  0  0  0  0  0  0  0  0
    4.7839    1.1070    0.0000 C   0  0  0  0  0  0  0  0  0
    5.4983    0.6945    0.0000 N   0  0  0  0  0  0  0  0  0
    5.4983   -0.1305    0.0000 C   0  0  0  0  0  0  0  0  0
  1  2  4  0  0  0  0
  1  5  4  0  0  0  0
  2  3  4  0  0  0  0
  3  4  4  0  0  0  0
  4  5  4  0  0  0  0
  5  6  1  0  0  0  0
  6  7  1  0  0  0  0
  6 21  1  0  0  0  0
  7  8  1  0  0  0  0
  8  9  4  0  0  0  0
  8 13  4  0  0  0  0
  9 10  4  0  0  0  0
  9 20  4  0  0  0  0
 10 11  4  0  0  0  0
 10 14  4  0  0  0  0
 11 12  4  0  0  0  0
 12 13  4  0  0  0  0
 14 15  1  0  0  0  0
 14 17  4  0  0  0  0
 15 16  1  0  0  0  0
 17 18  1  0  0  0  0
 17 19  4  0  0  0  0
 19 20  4  0  0  0  0
 21 22  1  0  0  0  0
 22 23  1  0  0  0  0
 23 24  1  0  0  0  0
M  END
>  <Name_Molregno>
192867

>  <Dopamine transporter>
3.45

>  <Norepinephrine transporter>
3.63

>  <Serotonin transporter>
5.44

$$$$
192899
  Marvin  02231216192D 0   1.00000     0.00000     0

 24 26  0  0  1  0  0  0  0  0999 V2000
    2.7176    2.4252    0.0000 S   0  0  0  0  0  0  0  0  0
    2.9725    3.2098    0.0000 C   0  0  0  0  0  0  0  0  0
    3.7975    3.2098    0.0000 C   0  0  0  0  0  0  0  0  0
    4.0525    2.4252    0.0000 C   0  0  0  0  0  0  0  0  0
    3.3850    1.9403    0.0000 C   0  0  0  0  0  0  0  0  0
    3.3850    1.1153    0.0000 C   0  0  0  0  0  0  0  0  0
    2.6705    0.7028    0.0000 O   0  0  0  0  0  0  0  0  0
    2.6705   -0.1222    0.0000 C   0  0  0  0  0  0  0  0  0
    1.9561   -0.5347    0.0000 C   0  0  0  0  0  0  0  0  0
    1.9561   -1.3597    0.0000 C   0  0  0  0  0  0  0  0  0
    2.6705   -1.7722    0.0000 C   0  0  0  0  0  0  0  0  0
    3.3850   -1.3597    0.0000 C   0  0  0  0  0  0  0  0  0
    3.3850   -0.5347    0.0000 C   0  0  0  0  0  0  0  0  0
    1.2416   -1.7722    0.0000 C   0  0  0  0  0  0  0  0  0
    1.2416   -2.5972    0.0000 O   0  0  0  0  0  0  0  0  0
    0.5271   -1.3597    0.0000 C   0  0  0  0  0  0  0  0  0
   -0.1873   -1.7722    0.0000 O   0  0  0  0  0  0  0  0  0
   -0.9018   -1.3597    0.0000 C   0  0  0  0  0  0  0  0  0
    0.5271   -0.5347    0.0000 C   0  0  0  0  0  0  0  0  0
    1.2416   -0.1222    0.0000 C   0  0  0  0  0  0  0  0  0
    4.0995    0.7028    0.0000 C   0  0  0  0  0  0  0  0  0
    4.8140    1.1153    0.0000 C   0  0  0  0  0  0  0  0  0
    5.5284    0.7028    0.0000 N   0  0  0  0  0  0  0  0  0
    5.5284   -0.1222    0.0000 C   0  0  0  0  0  0  0  0  0
  1  2  4  0  0  0  0
  1  5  4  0  0  0  0
  2  3  4  0  0  0  0
  3  4  4  0  0  0  0
  4  5  4  0  0  0  0
  5  6  1  0  0  0  0
  6  7  1  0  0  0  0
  6 21  1  0  0  0  0
  7  8  1  0  0  0  0
  8  9  4  0  0  0  0
  8 13  4  0  0  0  0
  9 10  4  0  0  0  0
  9 20  4  0  0  0  0
 10 11  4  0  0  0  0
 10 14  4  0  0  0  0
 11 12  4  0  0  0  0
 12 13  4  0  0  0  0
 14 15  1  0  0  0  0
 14 16  4  0  0  0  0
 16 17  1  0  0  0  0
 16 19  4  0  0  0  0
 17 18  1  0  0  0  0
 19 20  4  0  0  0  0
 21 22  1  0  0  0  0
 22 23  1  0  0  0  0
 23 24  1  0  0  0  0
M  END
>  <Name_Molregno>
192899

>  <Dopamine transporter>
2.55

>  <Norepinephrine transporter>
3.04

>  <Serotonin transporter>
3.58

$$$$
192900
  Marvin  02231216192D 0   1.00000     0.00000     0

 22 24  0  0  1  0  0  0  0  0999 V2000
    2.1597    2.2486    0.0000 S   0  0  0  0  0  0  0  0  0
    2.4147    3.0332    0.0000 C   0  0  0  0  0  0  0  0  0
    3.2397    3.0332    0.0000 C   0  0  0  0  0  0  0  0  0
    3.4946    2.2486    0.0000 C   0  0  0  0  0  0  0  0  0
    2.8272    1.7636    0.0000 C   0  0  0  0  0  0  0  0  0
    2.8272    0.9386    0.0000 C   0  0  0  0  0  0  0  0  0
    2.1127    0.5261    0.0000 O   0  0  0  0  0  0  0  0  0
    2.1127   -0.2989    0.0000 C   0  0  0  0  0  0  0  0  0
    1.3982   -0.7114    0.0000 C   0  0  0  0  0  0  0  0  0
    1.3982   -1.5364    0.0000 C   0  0  0  0  0  0  0  0  0
    2.1127   -1.9489    0.0000 C   0  0  0  0  0  0  0  0  0
    2.8272   -1.5364    0.0000 C   0  0  0  0  0  0  0  0  0
    2.8272   -0.7114    0.0000 C   0  0  0  0  0  0  0  0  0
    0.6838   -1.9489    0.0000 C   0  0  0  0  0  0  0  0  0
    0.6838   -2.7739    0.0000 O   0  0  0  0  0  0  0  0  0
   -0.0307   -1.5364    0.0000 C   0  0  0  0  0  0  0  0  0
   -0.0307   -0.7114    0.0000 C   0  0  0  0  0  0  0  0  0
    0.6838   -0.2989    0.0000 C   0  0  0  0  0  0  0  0  0
    3.5417    0.5261    0.0000 C   0  0  0  0  0  0  0  0  0
    4.2561    0.9386    0.0000 C   0  0  0  0  0  0  0  0  0
    4.9706    0.5261    0.0000 N   0  0  0  0  0  0  0  0  0
    4.9706   -0.2989    0.0000 C   0  0  0  0  0  0  0  0  0
  1  2  4  0  0  0  0
  1  5  4  0  0  0  0
  2  3  4  0  0  0  0
  3  4  4  0  0  0  0
  4  5  4  0  0  0  0
  5  6  1  0  0  0  0
  6  7  1  0  0  0  0
  6 19  1  0  0  0  0
  7  8  1  0  0  0  0
  8  9  4  0  0  0  0
  8 13  4  0  0  0  0
  9 10  4  0  0  0  0
  9 18  4  0  0  0  0
 10 11  4  0  0  0  0
 10 14  4  0  0  0  0
 11 12  4  0  0  0  0
 12 13  4  0  0  0  0
 14 15  1  0  0  0  0
 14 16  4  0  0  0  0
 16 17  4  0  0  0  0
 17 18  4  0  0  0  0
 19 20  1  0  0  0  0
 20 21  1  0  0  0  0
 21 22  1  0  0  0  0
M  END
>  <Name_Molregno>
192900

>  <Dopamine transporter>
3.62

>  <Norepinephrine transporter>
4.74

>  <Serotonin transporter>
5.02

$$$$
193317
  Marvin  02231216192D 0   1.00000     0.00000     0

 47 51  0  0  1  0  0  0  0  0999 V2000
    2.5742   -5.0741    0.0000 S   0  0  0  0  0  0  0  0  0
    2.3193   -5.8587    0.0000 C   0  0  0  0  0  0  0  0  0
    1.4943   -5.8587    0.0000 C   0  0  0  0  0  0  0  0  0
    1.2393   -5.0741    0.0000 C   0  0  0  0  0  0  0  0  0
    1.9068   -4.5892    0.0000 C   0  0  0  0  0  0  0  0  0
    1.9068   -3.7642    0.0000 C   0  0  0  0  0  0  0  0  0
    2.6213   -3.3517    0.0000 O   0  0  0  0  0  0  0  0  0
    2.6213   -2.5267    0.0000 C   0  0  0  0  0  0  0  0  0
    3.3357   -2.1142    0.0000 C   0  0  0  0  0  0  0  0  0
    3.3357   -1.2892    0.0000 C   0  0  0  0  0  0  0  0  0
    2.6213   -0.8767    0.0000 C   0  0  0  0  0  0  0  0  0
    1.9068   -1.2892    0.0000 C   0  0  0  0  0  0  0  0  0
    1.9068   -2.1142    0.0000 C   0  0  0  0  0  0  0  0  0
    4.0502   -0.8767    0.0000 C   0  0  0  0  0  0  0  0  0
    4.0502   -0.0517    0.0000 O   0  0  0  0  0  0  0  0  0
    3.3357    0.3608    0.0000 C   0  0  0  0  0  0  0  0  0
    2.6213   -0.0517    0.0000 O   0  0  0  0  0  0  0  0  0
    1.9068    0.3608    0.0000 C   0  0  0  0  0  0  0  0  0
    1.1923   -0.0517    0.0000 C   0  0  0  0  0  0  0  0  0
    0.4778    0.3608    0.0000 O   0  0  0  0  0  0  0  0  0
    1.1923   -0.8767    0.0000 O   0  0  0  0  0  0  0  0  0
    1.9068    1.1858    0.0000 C   0  0  0  0  0  0  0  0  0
    1.1923    1.5983    0.0000 O   0  0  0  0  0  0  0  0  0
    2.6213    1.5983    0.0000 C   0  0  0  0  0  0  0  0  0
    2.6213    2.4233    0.0000 O   0  0  0  0  0  0  0  0  0
    3.3357    1.1858    0.0000 C   0  0  0  0  0  0  0  0  0
    4.0502    1.5983    0.0000 O   0  0  0  0  0  0  0  0  0
    4.7647   -1.2892    0.0000 C   0  0  0  0  0  0  0  0  0
    5.4791   -0.8767    0.0000 O   0  0  0  0  0  0  0  0  0
    6.1936   -1.2892    0.0000 C   0  0  0  0  0  0  0  0  0
    6.9081   -0.8767    0.0000 O   0  0  0  0  0  0  0  0  0
    7.6226   -1.2892    0.0000 C   0  0  0  0  0  0  0  0  0
    8.3370   -0.8767    0.0000 C   0  0  0  0  0  0  0  0  0
    9.0515   -1.2892    0.0000 O   0  0  0  0  0  0  0  0  0
    8.3370   -0.0517    0.0000 O   0  0  0  0  0  0  0  0  0
    7.6226   -2.1142    0.0000 C   0  0  0  0  0  0  0  0  0
    8.3370   -2.5267    0.0000 O   0  0  0  0  0  0  0  0  0
    6.9081   -2.5267    0.0000 C   0  0  0  0  0  0  0  0  0
    6.9081   -3.3517    0.0000 O   0  0  0  0  0  0  0  0  0
    6.1936   -2.1142    0.0000 C   0  0  0  0  0  0  0  0  0
    5.4791   -2.5267    0.0000 O   0  0  0  0  0  0  0  0  0
    4.7647   -2.1142    0.0000 C   0  0  0  0  0  0  0  0  0
    4.0502   -2.5267    0.0000 C   0  0  0  0  0  0  0  0  0
    1.1923   -3.3517    0.0000 C   0  0  0  0  0  0  0  0  0
    0.4778   -3.7642    0.0000 C   0  0  0  0  0  0  0  0  0
   -0.2366   -3.3517    0.0000 N   0  0  0  0  0  0  0  0  0
   -0.9511   -3.7642    0.0000 C   0  0  0  0  0  0  0  0  0
  1  2  4  0  0  0  0
  1  5  4  0  0  0  0
  2  3  4  0  0  0  0
  3  4  4  0  0  0  0
  4  5  4  0  0  0  0
  5  6  1  0  0  0  0
  6  7  1  0  0  0  0
  6 44  1  0  0  0  0
  7  8  1  0  0  0  0
  8  9  4  0  0  0  0
  8 13  4  0  0  0  0
  9 10  4  0  0  0  0
  9 43  4  0  0  0  0
 10 11  4  0  0  0  0
 10 14  4  0  0  0  0
 11 12  4  0  0  0  0
 12 13  4  0  0  0  0
 14 15  1  0  0  0  0
 14 28  4  0  0  0  0
 15 16  1  0  0  0  0
 16 17  1  0  0  0  0
 16 26  1  0  0  0  0
 17 18  1  0  0  0  0
 18 19  1  0  0  0  0
 18 22  1  0  0  0  0
 19 20  1  0  0  0  0
 19 21  2  0  0  0  0
 22 23  1  0  0  0  0
 22 24  1  0  0  0  0
 24 25  1  0  0  0  0
 24 26  1  0  0  0  0
 26 27  1  0  0  0  0
 28 29  1  0  0  0  0
 28 42  4  0  0  0  0
 29 30  1  0  0  0  0
 30 31  1  0  0  0  0
 30 40  1  0  0  0  0
 31 32  1  0  0  0  0
 32 33  1  0  0  0  0
 32 36  1  0  0  0  0
 33 34  1  0  0  0  0
 33 35  2  0  0  0  0
 36 37  1  0  0  0  0
 36 38  1  0  0  0  0
 38 39  1  0  0  0  0
 38 40  1  0  0  0  0
 40 41  1  0  0  0  0
 42 43  4  0  0  0  0
 44 45  1  0  0  0  0
 45 46  1  0  0  0  0
 46 47  1  0  0  0  0
M  END
>  <Name_Molregno>
193317

>  <Dopamine transporter>
2

>  <Norepinephrine transporter>
2

>  <Serotonin transporter>
2

$$$$
193318
  Marvin  02231216192D 0   1.00000     0.00000     0

 36 39  0  0  1  0  0  0  0  0999 V2000
    4.6825    2.8151    0.0000 S   0  0  0  0  0  0  0  0  0
    4.9375    3.5998    0.0000 C   0  0  0  0  0  0  0  0  0
    5.7625    3.5998    0.0000 C   0  0  0  0  0  0  0  0  0
    6.0174    2.8151    0.0000 C   0  0  0  0  0  0  0  0  0
    5.3500    2.3302    0.0000 C   0  0  0  0  0  0  0  0  0
    5.3500    1.5052    0.0000 C   0  0  0  0  0  0  0  0  0
    4.6355    1.0927    0.0000 O   0  0  0  0  0  0  0  0  0
    4.6355    0.2677    0.0000 C   0  0  0  0  0  0  0  0  0
    3.9210   -0.1448    0.0000 C   0  0  0  0  0  0  0  0  0
    3.9210   -0.9698    0.0000 C   0  0  0  0  0  0  0  0  0
    4.6355   -1.3823    0.0000 C   0  0  0  0  0  0  0  0  0
    5.3500   -0.9698    0.0000 C   0  0  0  0  0  0  0  0  0
    5.3500   -0.1448    0.0000 C   0  0  0  0  0  0  0  0  0
    3.2066   -1.3823    0.0000 C   0  0  0  0  0  0  0  0  0
    3.2066   -2.2073    0.0000 O   0  0  0  0  0  0  0  0  0
    2.4921   -2.6198    0.0000 C   0  0  0  0  0  0  0  0  0
    1.7776   -2.2073    0.0000 O   0  0  0  0  0  0  0  0  0
    1.0632   -2.6198    0.0000 C   0  0  0  0  0  0  0  0  0
    0.3487   -2.2073    0.0000 C   0  0  0  0  0  0  0  0  0
   -0.3658   -2.6198    0.0000 O   0  0  0  0  0  0  0  0  0
    0.3487   -1.3823    0.0000 O   0  0  0  0  0  0  0  0  0
    1.0632   -3.4448    0.0000 C   0  0  0  0  0  0  0  0  0
    0.3487   -3.8573    0.0000 O   0  0  0  0  0  0  0  0  0
    1.7776   -3.8573    0.0000 C   0  0  0  0  0  0  0  0  0
    1.7776   -4.6823    0.0000 O   0  0  0  0  0  0  0  0  0
    2.4921   -3.4448    0.0000 C   0  0  0  0  0  0  0  0  0
    3.2066   -3.8573    0.0000 O   0  0  0  0  0  0  0  0  0
    2.4921   -0.9698    0.0000 C   0  0  0  0  0  0  0  0  0
    1.7776   -1.3823    0.0000 O   0  0  0  0  0  0  0  0  0
    1.0632   -0.9698    0.0000 C   0  0  0  0  0  0  0  0  0
    2.4921   -0.1448    0.0000 C   0  0  0  0  0  0  0  0  0
    3.2066    0.2677    0.0000 C   0  0  0  0  0  0  0  0  0
    6.0645    1.0927    0.0000 C   0  0  0  0  0  0  0  0  0
    6.7789    1.5052    0.0000 C   0  0  0  0  0  0  0  0  0
    7.4934    1.0927    0.0000 N   0  0  0  0  0  0  0  0  0
    7.4934    0.2677    0.0000 C   0  0  0  0  0  0  0  0  0
  1  2  4  0  0  0  0
  1  5  4  0  0  0  0
  2  3  4  0  0  0  0
  3  4  4  0  0  0  0
  4  5  4  0  0  0  0
  5  6  1  0  0  0  0
  6  7  1  0  0  0  0
  6 33  1  0  0  0  0
  7  8  1  0  0  0  0
  8  9  4  0  0  0  0
  8 13  4  0  0  0  0
  9 10  4  0  0  0  0
  9 32  4  0  0  0  0
 10 11  4  0  0  0  0
 10 14  4  0  0  0  0
 11 12  4  0  0  0  0
 12 13  4  0  0  0  0
 14 15  1  0  0  0  0
 14 28  4  0  0  0  0
 15 16  1  0  0  0  0
 16 17  1  0  0  0  0
 16 26  1  0  0  0  0
 17 18  1  0  0  0  0
 18 19  1  0  0  0  0
 18 22  1  0  0  0  0
 19 20  1  0  0  0  0
 19 21  2  0  0  0  0
 22 23  1  0  0  0  0
 22 24  1  0  0  0  0
 24 25  1  0  0  0  0
 24 26  1  0  0  0  0
 26 27  1  0  0  0  0
 28 29  1  0  0  0  0
 28 31  4  0  0  0  0
 29 30  1  0  0  0  0
 31 32  4  0  0  0  0
 33 34  1  0  0  0  0
 34 35  1  0  0  0  0
 35 36  1  0  0  0  0
M  END
>  <Name_Molregno>
193318

>  <Dopamine transporter>
2

>  <Norepinephrine transporter>
2

>  <Serotonin transporter>
2

$$$$
199712
  Marvin  02231216192D 0   1.00000     0.00000     0

 31 33  0  0  0  0  0  0  0  0999 V2000
   -4.3682   -0.7845    0.0000 O   0  0  0  0  0  0  0  0  0
   -5.0827   -0.3720    0.0000 C   0  0  0  0  0  0  0  0  0
   -5.7972   -0.7845    0.0000 C   0  0  0  0  0  0  0  0  0
   -5.7972   -1.6095    0.0000 C   0  0  0  0  0  0  0  0  0
   -6.5116   -2.0220    0.0000 C   0  0  0  0  0  0  0  0  0
   -7.2261   -1.6095    0.0000 C   0  0  0  0  0  0  0  0  0
   -7.2261   -0.7845    0.0000 C   0  0  0  0  0  0  0  0  0
   -6.5116   -0.3720    0.0000 C   0  0  0  0  0  0  0  0  0
   -5.0827    0.4530    0.0000 C   0  0  0  0  0  0  0  0  0
   -5.7972    0.8655    0.0000 C   0  0  0  0  0  0  0  0  0
   -5.7972    1.6905    0.0000 C   0  0  0  0  0  0  0  0  0
   -5.0827    2.1030    0.0000 C   0  0  0  0  0  0  0  0  0
   -4.3682    1.6905    0.0000 C   0  0  0  0  0  0  0  0  0
   -4.3682    0.8655    0.0000 C   0  0  0  0  0  0  0  0  0
   -3.6537   -0.3720    0.0000 C   0  0  0  0  0  0  0  0  0
   -2.9393   -0.7845    0.0000 C   0  0  0  0  0  0  0  0  0
   -2.2248   -0.3720    0.0000 N   0  0  0  0  0  0  0  0  0
   -1.5103   -0.7845    0.0000 C   0  0  0  0  0  0  0  0  0
   -0.7959   -0.3720    0.0000 C   0  0  0  0  0  0  0  0  0
   -0.0814   -0.7845    0.0000 C   0  0  0  0  0  0  0  0  0
    0.6331   -0.3720    0.0000 N   0  0  0  0  0  0  0  0  0
    1.3475   -0.7845    0.0000 C   0  0  0  0  0  0  0  0  0
    2.0620   -0.3720    0.0000 C   0  0  0  0  0  0  0  0  0
    2.7765   -0.7845    0.0000 C   0  0  0  0  0  0  0  0  0
    3.4910   -0.3720    0.0000 C   0  0  0  0  0  0  0  0  0
    4.2054   -0.7845    0.0000 C   0  0  0  0  0  0  0  0  0
    4.2054   -1.6095    0.0000 C   0  0  0  0  0  0  0  0  0
    3.4910   -2.0220    0.0000 C   0  0  0  0  0  0  0  0  0
    2.7765   -1.6095    0.0000 C   0  0  0  0  0  0  0  0  0
    0.6331    0.4530    0.0000 C   0  0  0  0  0  0  0  0  0
   -2.2248    0.4530    0.0000 C   0  0  0  0  0  0  0  0  0
  1  2  1  0  0  0  0
  1 15  1  0  0  0  0
  2  3  1  0  0  0  0
  2  9  1  0  0  0  0
  3  4  4  0  0  0  0
  3  8  4  0  0  0  0
  4  5  4  0  0  0  0
  5  6  4  0  0  0  0
  6  7  4  0  0  0  0
  7  8  4  0  0  0  0
  9 10  4  0  0  0  0
  9 14  4  0  0  0  0
 10 11  4  0  0  0  0
 11 12  4  0  0  0  0
 12 13  4  0  0  0  0
 13 14  4  0  0  0  0
 15 16  1  0  0  0  0
 16 17  1  0  0  0  0
 17 18  1  0  0  0  0
 17 31  1  0  0  0  0
 18 19  1  0  0  0  0
 19 20  1  0  0  0  0
 20 21  1  0  0  0  0
 21 22  1  0  0  0  0
 21 30  1  0  0  0  0
 22 23  1  0  0  0  0
 23 24  1  0  0  0  0
 24 25  4  0  0  0  0
 24 29  4  0  0  0  0
 25 26  4  0  0  0  0
 26 27  4  0  0  0  0
 27 28  4  0  0  0  0
 28 29  4  0  0  0  0
M  END
>  <Name_Molregno>
199712

>  <Dopamine transporter>
6.49

>  <Norepinephrine transporter>
6.71

>  <Serotonin transporter>
5.82

$$$$
199713
  Marvin  02231216192D 0   1.00000     0.00000     0

 33 36  0  0  0  0  0  0  0  0999 V2000
    4.3857    3.2757    0.0000 F   0  0  0  0  0  0  0  0  0
    4.3857    2.4507    0.0000 C   0  0  0  0  0  0  0  0  0
    5.1002    2.0382    0.0000 C   0  0  0  0  0  0  0  0  0
    5.1002    1.2132    0.0000 C   0  0  0  0  0  0  0  0  0
    4.3857    0.8007    0.0000 C   0  0  0  0  0  0  0  0  0
    3.6712    1.2132    0.0000 C   0  0  0  0  0  0  0  0  0
    3.6712    2.0382    0.0000 C   0  0  0  0  0  0  0  0  0
    4.3857   -0.0243    0.0000 C   0  0  0  0  0  0  0  0  0
    5.1002   -0.4368    0.0000 O   0  0  0  0  0  0  0  0  0
    5.1002   -1.2618    0.0000 C   0  0  0  0  0  0  0  0  0
    5.8146   -1.6743    0.0000 C   0  0  0  0  0  0  0  0  0
    5.8146   -2.4993    0.0000 N   0  0  0  0  0  0  0  0  0
    6.5291   -2.9118    0.0000 C   0  0  0  0  0  0  0  0  0
    6.5291   -3.7368    0.0000 C   0  0  0  0  0  0  0  0  0
    5.8146   -4.1493    0.0000 N   0  0  0  0  0  0  0  0  0
    5.1002   -3.7368    0.0000 C   0  0  0  0  0  0  0  0  0
    5.1002   -2.9118    0.0000 C   0  0  0  0  0  0  0  0  0
    4.3857   -2.4993    0.0000 O   0  0  0  0  0  0  0  0  0
    5.8146   -4.9743    0.0000 C   0  0  0  0  0  0  0  0  0
    6.5291   -5.3868    0.0000 C   0  0  0  0  0  0  0  0  0
    6.5291   -6.2118    0.0000 C   0  0  0  0  0  0  0  0  0
    7.2436   -6.6243    0.0000 C   0  0  0  0  0  0  0  0  0
    7.2436   -7.4493    0.0000 C   0  0  0  0  0  0  0  0  0
    6.5291   -7.8618    0.0000 C   0  0  0  0  0  0  0  0  0
    5.8146   -7.4493    0.0000 C   0  0  0  0  0  0  0  0  0
    5.8146   -6.6243    0.0000 C   0  0  0  0  0  0  0  0  0
    3.6712   -0.4368    0.0000 C   0  0  0  0  0  0  0  0  0
    3.6712   -1.2618    0.0000 C   0  0  0  0  0  0  0  0  0
    2.9568   -1.6743    0.0000 C   0  0  0  0  0  0  0  0  0
    2.2423   -1.2618    0.0000 C   0  0  0  0  0  0  0  0  0
    1.5278   -1.6743    0.0000 F   0  0  0  0  0  0  0  0  0
    2.2423   -0.4368    0.0000 C   0  0  0  0  0  0  0  0  0
    2.9568   -0.0243    0.0000 C   0  0  0  0  0  0  0  0  0
  1  2  1  0  0  0  0
  2  3  4  0  0  0  0
  2  7  4  0  0  0  0
  3  4  4  0  0  0  0
  4  5  4  0  0  0  0
  5  6  4  0  0  0  0
  5  8  1  0  0  0  0
  6  7  4  0  0  0  0
  8  9  1  0  0  0  0
  8 27  1  0  0  0  0
  9 10  1  0  0  0  0
 10 11  1  0  0  0  0
 11 12  1  0  0  0  0
 12 13  1  0  0  0  0
 12 17  1  0  0  0  0
 13 14  1  0  0  0  0
 14 15  1  0  0  0  0
 15 16  1  0  0  0  0
 15 19  1  0  0  0  0
 16 17  1  0  0  0  0
 17 18  2  0  0  0  0
 19 20  1  0  0  0  0
 20 21  1  0  0  0  0
 21 22  4  0  0  0  0
 21 26  4  0  0  0  0
 22 23  4  0  0  0  0
 23 24  4  0  0  0  0
 24 25  4  0  0  0  0
 25 26  4  0  0  0  0
 27 28  4  0  0  0  0
 27 33  4  0  0  0  0
 28 29  4  0  0  0  0
 29 30  4  0  0  0  0
 30 31  1  0  0  0  0
 30 32  4  0  0  0  0
 32 33  4  0  0  0  0
M  END
>  <Name_Molregno>
199713

>  <Dopamine transporter>
5.84

>  <Norepinephrine transporter>
5.15

>  <Serotonin transporter>
6.94

$$$$
199920
  Marvin  02231216192D 0   1.00000     0.00000     0

 31 33  0  0  0  0  0  0  0  0999 V2000
   -0.1417   -3.2342    0.0000 F   0  0  0  0  0  0  0  0  0
    0.5728   -2.8217    0.0000 C   0  0  0  0  0  0  0  0  0
    0.5728   -1.9967    0.0000 C   0  0  0  0  0  0  0  0  0
    1.2873   -1.5842    0.0000 C   0  0  0  0  0  0  0  0  0
    2.0017   -1.9967    0.0000 C   0  0  0  0  0  0  0  0  0
    2.0017   -2.8217    0.0000 C   0  0  0  0  0  0  0  0  0
    1.2873   -3.2342    0.0000 C   0  0  0  0  0  0  0  0  0
    2.7162   -1.5842    0.0000 C   0  0  0  0  0  0  0  0  0
    3.4307   -1.9967    0.0000 O   0  0  0  0  0  0  0  0  0
    4.1451   -1.5842    0.0000 C   0  0  0  0  0  0  0  0  0
    4.8596   -1.9967    0.0000 C   0  0  0  0  0  0  0  0  0
    5.5741   -1.5842    0.0000 N   0  0  0  0  0  0  0  0  0
    6.2886   -1.9967    0.0000 C   0  0  0  0  0  0  0  0  0
    7.0030   -1.5842    0.0000 C   0  0  0  0  0  0  0  0  0
    7.7175   -1.9967    0.0000 C   0  0  0  0  0  0  0  0  0
    8.4320   -1.5842    0.0000 N   0  0  0  0  0  0  0  0  0
    9.1464   -1.9967    0.0000 C   0  0  0  0  0  0  0  0  0
    9.8609   -1.5842    0.0000 C   0  0  0  0  0  0  0  0  0
   10.5754   -1.9967    0.0000 C   0  0  0  0  0  0  0  0  0
   11.2899   -1.5842    0.0000 C   0  0  0  0  0  0  0  0  0
   12.0043   -1.9967    0.0000 C   0  0  0  0  0  0  0  0  0
   12.0043   -2.8217    0.0000 C   0  0  0  0  0  0  0  0  0
   11.2899   -3.2342    0.0000 C   0  0  0  0  0  0  0  0  0
   10.5754   -2.8217    0.0000 C   0  0  0  0  0  0  0  0  0
    2.7162   -0.7592    0.0000 C   0  0  0  0  0  0  0  0  0
    2.0017   -0.3467    0.0000 C   0  0  0  0  0  0  0  0  0
    2.0017    0.4783    0.0000 C   0  0  0  0  0  0  0  0  0
    2.7162    0.8908    0.0000 C   0  0  0  0  0  0  0  0  0
    2.7162    1.7158    0.0000 F   0  0  0  0  0  0  0  0  0
    3.4307    0.4783    0.0000 C   0  0  0  0  0  0  0  0  0
    3.4307   -0.3467    0.0000 C   0  0  0  0  0  0  0  0  0
  1  2  1  0  0  0  0
  2  3  4  0  0  0  0
  2  7  4  0  0  0  0
  3  4  4  0  0  0  0
  4  5  4  0  0  0  0
  5  6  4  0  0  0  0
  5  8  1  0  0  0  0
  6  7  4  0  0  0  0
  8  9  1  0  0  0  0
  8 25  1  0  0  0  0
  9 10  1  0  0  0  0
 10 11  1  0  0  0  0
 11 12  1  0  0  0  0
 12 13  1  0  0  0  0
 13 14  1  0  0  0  0
 14 15  1  0  0  0  0
 15 16  1  0  0  0  0
 16 17  1  0  0  0  0
 17 18  1  0  0  0  0
 18 19  1  0  0  0  0
 19 20  4  0  0  0  0
 19 24  4  0  0  0  0
 20 21  4  0  0  0  0
 21 22  4  0  0  0  0
 22 23  4  0  0  0  0
 23 24  4  0  0  0  0
 25 26  4  0  0  0  0
 25 31  4  0  0  0  0
 26 27  4  0  0  0  0
 27 28  4  0  0  0  0
 28 29  1  0  0  0  0
 28 30  4  0  0  0  0
 30 31  4  0  0  0  0
M  END
>  <Name_Molregno>
199920

>  <Dopamine transporter>
7.55

>  <Norepinephrine transporter>
7.09

>  <Serotonin transporter>
6.9

$$$$
199921
  Marvin  02231216192D 0   1.00000     0.00000     0

 32 34  0  0  0  0  0  0  0  0999 V2000
   -0.1570   -3.2004    0.0000 F   0  0  0  0  0  0  0  0  0
    0.5575   -2.7879    0.0000 C   0  0  0  0  0  0  0  0  0
    0.5575   -1.9629    0.0000 C   0  0  0  0  0  0  0  0  0
    1.2719   -1.5504    0.0000 C   0  0  0  0  0  0  0  0  0
    1.9864   -1.9629    0.0000 C   0  0  0  0  0  0  0  0  0
    1.9864   -2.7879    0.0000 C   0  0  0  0  0  0  0  0  0
    1.2719   -3.2004    0.0000 C   0  0  0  0  0  0  0  0  0
    2.7009   -1.5504    0.0000 C   0  0  0  0  0  0  0  0  0
    3.4153   -1.9629    0.0000 O   0  0  0  0  0  0  0  0  0
    4.1298   -1.5504    0.0000 C   0  0  0  0  0  0  0  0  0
    4.8443   -1.9629    0.0000 C   0  0  0  0  0  0  0  0  0
    5.5588   -1.5504    0.0000 N   0  0  0  0  0  0  0  0  0
    6.2732   -1.9629    0.0000 C   0  0  0  0  0  0  0  0  0
    6.9877   -1.5504    0.0000 C   0  0  0  0  0  0  0  0  0
    7.7022   -1.9629    0.0000 C   0  0  0  0  0  0  0  0  0
    8.4166   -1.5504    0.0000 N   0  0  0  0  0  0  0  0  0
    9.1311   -1.9629    0.0000 C   0  0  0  0  0  0  0  0  0
    9.1311   -2.7879    0.0000 O   0  0  0  0  0  0  0  0  0
    9.8456   -1.5504    0.0000 C   0  0  0  0  0  0  0  0  0
   10.5601   -1.9629    0.0000 C   0  0  0  0  0  0  0  0  0
   11.2745   -1.5504    0.0000 C   0  0  0  0  0  0  0  0  0
   11.9890   -1.9629    0.0000 C   0  0  0  0  0  0  0  0  0
   11.9890   -2.7879    0.0000 C   0  0  0  0  0  0  0  0  0
   11.2745   -3.2004    0.0000 C   0  0  0  0  0  0  0  0  0
   10.5601   -2.7879    0.0000 C   0  0  0  0  0  0  0  0  0
    2.7009   -0.7254    0.0000 C   0  0  0  0  0  0  0  0  0
    1.9864   -0.3129    0.0000 C   0  0  0  0  0  0  0  0  0
    1.9864    0.5121    0.0000 C   0  0  0  0  0  0  0  0  0
    2.7009    0.9246    0.0000 C   0  0  0  0  0  0  0  0  0
    2.7009    1.7496    0.0000 F   0  0  0  0  0  0  0  0  0
    3.4153    0.5121    0.0000 C   0  0  0  0  0  0  0  0  0
    3.4153   -0.3129    0.0000 C   0  0  0  0  0  0  0  0  0
  1  2  1  0  0  0  0
  2  3  4  0  0  0  0
  2  7  4  0  0  0  0
  3  4  4  0  0  0  0
  4  5  4  0  0  0  0
  5  6  4  0  0  0  0
  5  8  1  0  0  0  0
  6  7  4  0  0  0  0
  8  9  1  0  0  0  0
  8 26  1  0  0  0  0
  9 10  1  0  0  0  0
 10 11  1  0  0  0  0
 11 12  1  0  0  0  0
 12 13  1  0  0  0  0
 13 14  1  0  0  0  0
 14 15  1  0  0  0  0
 15 16  1  0  0  0  0
 16 17  1  0  0  0  0
 17 18  2  0  0  0  0
 17 19  1  0  0  0  0
 19 20  1  0  0  0  0
 20 21  4  0  0  0  0
 20 25  4  0  0  0  0
 21 22  4  0  0  0  0
 22 23  4  0  0  0  0
 23 24  4  0  0  0  0
 24 25  4  0  0  0  0
 26 27  4  0  0  0  0
 26 32  4  0  0  0  0
 27 28  4  0  0  0  0
 28 29  4  0  0  0  0
 29 30  1  0  0  0  0
 29 31  4  0  0  0  0
 31 32  4  0  0  0  0
M  END
>  <Name_Molregno>
199921

>  <Dopamine transporter>
7.21

>  <Norepinephrine transporter>
6.32

>  <Serotonin transporter>
5.94

$$$$
199924
  Marvin  02231216192D 0   1.00000     0.00000     0

 33 35  0  0  0  0  0  0  0  0999 V2000
   -0.2738    3.9081    0.0000 F   0  0  0  0  0  0  0  0  0
    0.4406    3.4956    0.0000 C   0  0  0  0  0  0  0  0  0
    1.1551    3.9081    0.0000 C   0  0  0  0  0  0  0  0  0
    1.8696    3.4956    0.0000 C   0  0  0  0  0  0  0  0  0
    1.8696    2.6706    0.0000 C   0  0  0  0  0  0  0  0  0
    1.1551    2.2581    0.0000 C   0  0  0  0  0  0  0  0  0
    0.4406    2.6706    0.0000 C   0  0  0  0  0  0  0  0  0
    2.5840    2.2581    0.0000 C   0  0  0  0  0  0  0  0  0
    3.2985    2.6706    0.0000 O   0  0  0  0  0  0  0  0  0
    4.0130    2.2581    0.0000 C   0  0  0  0  0  0  0  0  0
    4.7275    2.6706    0.0000 C   0  0  0  0  0  0  0  0  0
    5.4419    2.2581    0.0000 N   0  0  0  0  0  0  0  0  0
    6.1564    2.6706    0.0000 C   0  0  0  0  0  0  0  0  0
    6.8709    2.2581    0.0000 C   0  0  0  0  0  0  0  0  0
    7.5853    2.6706    0.0000 C   0  0  0  0  0  0  0  0  0
    8.2998    2.2581    0.0000 C   0  0  0  0  0  0  0  0  0
    9.0143    2.6706    0.0000 N   0  0  0  0  0  0  0  0  0
    9.7288    2.2581    0.0000 C   0  0  0  0  0  0  0  0  0
    9.7288    1.4331    0.0000 O   0  0  0  0  0  0  0  0  0
   10.4432    2.6706    0.0000 C   0  0  0  0  0  0  0  0  0
   11.1577    2.2581    0.0000 C   0  0  0  0  0  0  0  0  0
   11.8722    2.6706    0.0000 C   0  0  0  0  0  0  0  0  0
   12.5866    2.2581    0.0000 C   0  0  0  0  0  0  0  0  0
   12.5866    1.4331    0.0000 C   0  0  0  0  0  0  0  0  0
   11.8722    1.0206    0.0000 C   0  0  0  0  0  0  0  0  0
   11.1577    1.4331    0.0000 C   0  0  0  0  0  0  0  0  0
    2.5840    1.4331    0.0000 C   0  0  0  0  0  0  0  0  0
    3.2985    1.0206    0.0000 C   0  0  0  0  0  0  0  0  0
    3.2985    0.1956    0.0000 C   0  0  0  0  0  0  0  0  0
    2.5840   -0.2169    0.0000 C   0  0  0  0  0  0  0  0  0
    2.5840   -1.0419    0.0000 F   0  0  0  0  0  0  0  0  0
    1.8696    0.1956    0.0000 C   0  0  0  0  0  0  0  0  0
    1.8696    1.0206    0.0000 C   0  0  0  0  0  0  0  0  0
  1  2  1  0  0  0  0
  2  3  4  0  0  0  0
  2  7  4  0  0  0  0
  3  4  4  0  0  0  0
  4  5  4  0  0  0  0
  5  6  4  0  0  0  0
  5  8  1  0  0  0  0
  6  7  4  0  0  0  0
  8  9  1  0  0  0  0
  8 27  1  0  0  0  0
  9 10  1  0  0  0  0
 10 11  1  0  0  0  0
 11 12  1  0  0  0  0
 12 13  1  0  0  0  0
 13 14  1  0  0  0  0
 14 15  1  0  0  0  0
 15 16  1  0  0  0  0
 16 17  1  0  0  0  0
 17 18  1  0  0  0  0
 18 19  2  0  0  0  0
 18 20  1  0  0  0  0
 20 21  1  0  0  0  0
 21 22  4  0  0  0  0
 21 26  4  0  0  0  0
 22 23  4  0  0  0  0
 23 24  4  0  0  0  0
 24 25  4  0  0  0  0
 25 26  4  0  0  0  0
 27 28  4  0  0  0  0
 27 33  4  0  0  0  0
 28 29  4  0  0  0  0
 29 30  4  0  0  0  0
 30 31  1  0  0  0  0
 30 32  4  0  0  0  0
 32 33  4  0  0  0  0
M  END
>  <Name_Molregno>
199924

>  <Dopamine transporter>
7.29

>  <Norepinephrine transporter>
6.26

>  <Serotonin transporter>
6.28

$$$$
199926
  Marvin  02231216192D 0   1.00000     0.00000     0

 42 45  0  0  0  0  0  0  0  0999 V2000
  -11.8119    0.4105    0.0000 F   0  0  0  0  0  0  0  0  0
  -11.0975   -0.0020    0.0000 C   0  0  0  0  0  0  0  0  0
  -10.3830    0.4105    0.0000 C   0  0  0  0  0  0  0  0  0
   -9.6685   -0.0020    0.0000 C   0  0  0  0  0  0  0  0  0
   -9.6685   -0.8270    0.0000 C   0  0  0  0  0  0  0  0  0
  -10.3830   -1.2395    0.0000 C   0  0  0  0  0  0  0  0  0
  -11.0975   -0.8270    0.0000 C   0  0  0  0  0  0  0  0  0
   -8.9541   -1.2395    0.0000 C   0  0  0  0  0  0  0  0  0
   -8.2396   -0.8270    0.0000 O   0  0  0  0  0  0  0  0  0
   -7.5251   -1.2395    0.0000 C   0  0  0  0  0  0  0  0  0
   -6.8106   -0.8270    0.0000 C   0  0  0  0  0  0  0  0  0
   -6.0962   -1.2395    0.0000 N   0  0  0  0  0  0  0  0  0
   -5.3817   -0.8270    0.0000 C   0  0  0  0  0  0  0  0  0
   -4.6672   -1.2395    0.0000 C   0  0  0  0  0  0  0  0  0
   -3.9528   -0.8270    0.0000 N   0  0  0  0  0  0  0  0  0
   -3.2383   -1.2395    0.0000 C   0  0  0  0  0  0  0  0  0
   -2.5238   -0.8270    0.0000 C   0  0  0  0  0  0  0  0  0
   -1.8093   -1.2395    0.0000 O   0  0  0  0  0  0  0  0  0
   -1.0949   -0.8270    0.0000 C   0  0  0  0  0  0  0  0  0
   -0.3804   -1.2395    0.0000 C   0  0  0  0  0  0  0  0  0
    0.3341   -0.8270    0.0000 C   0  0  0  0  0  0  0  0  0
    1.0485   -1.2395    0.0000 C   0  0  0  0  0  0  0  0  0
    1.0485   -2.0645    0.0000 C   0  0  0  0  0  0  0  0  0
    1.7630   -2.4770    0.0000 F   0  0  0  0  0  0  0  0  0
    0.3341   -2.4770    0.0000 C   0  0  0  0  0  0  0  0  0
   -0.3804   -2.0645    0.0000 C   0  0  0  0  0  0  0  0  0
   -1.0949   -0.0020    0.0000 C   0  0  0  0  0  0  0  0  0
   -1.8093    0.4105    0.0000 C   0  0  0  0  0  0  0  0  0
   -1.8093    1.2355    0.0000 C   0  0  0  0  0  0  0  0  0
   -1.0949    1.6480    0.0000 C   0  0  0  0  0  0  0  0  0
   -1.0949    2.4730    0.0000 F   0  0  0  0  0  0  0  0  0
   -0.3804    1.2355    0.0000 C   0  0  0  0  0  0  0  0  0
   -0.3804    0.4105    0.0000 C   0  0  0  0  0  0  0  0  0
   -3.9528   -0.0020    0.0000 C   0  0  0  0  0  0  0  0  0
   -6.0962   -2.0645    0.0000 C   0  0  0  0  0  0  0  0  0
   -8.9541   -2.0645    0.0000 C   0  0  0  0  0  0  0  0  0
   -8.2396   -2.4770    0.0000 C   0  0  0  0  0  0  0  0  0
   -8.2396   -3.3020    0.0000 C   0  0  0  0  0  0  0  0  0
   -8.9541   -3.7145    0.0000 C   0  0  0  0  0  0  0  0  0
   -8.9541   -4.5395    0.0000 F   0  0  0  0  0  0  0  0  0
   -9.6685   -3.3020    0.0000 C   0  0  0  0  0  0  0  0  0
   -9.6685   -2.4770    0.0000 C   0  0  0  0  0  0  0  0  0
  1  2  1  0  0  0  0
  2  3  4  0  0  0  0
  2  7  4  0  0  0  0
  3  4  4  0  0  0  0
  4  5  4  0  0  0  0
  5  6  4  0  0  0  0
  5  8  1  0  0  0  0
  6  7  4  0  0  0  0
  8  9  1  0  0  0  0
  8 36  1  0  0  0  0
  9 10  1  0  0  0  0
 10 11  1  0  0  0  0
 11 12  1  0  0  0  0
 12 13  1  0  0  0  0
 12 35  1  0  0  0  0
 13 14  1  0  0  0  0
 14 15  1  0  0  0  0
 15 16  1  0  0  0  0
 15 34  1  0  0  0  0
 16 17  1  0  0  0  0
 17 18  1  0  0  0  0
 18 19  1  0  0  0  0
 19 20  1  0  0  0  0
 19 27  1  0  0  0  0
 20 21  4  0  0  0  0
 20 26  4  0  0  0  0
 21 22  4  0  0  0  0
 22 23  4  0  0  0  0
 23 24  1  0  0  0  0
 23 25  4  0  0  0  0
 25 26  4  0  0  0  0
 27 28  4  0  0  0  0
 27 33  4  0  0  0  0
 28 29  4  0  0  0  0
 29 30  4  0  0  0  0
 30 31  1  0  0  0  0
 30 32  4  0  0  0  0
 32 33  4  0  0  0  0
 36 37  4  0  0  0  0
 36 42  4  0  0  0  0
 37 38  4  0  0  0  0
 38 39  4  0  0  0  0
 39 40  1  0  0  0  0
 39 41  4  0  0  0  0
 41 42  4  0  0  0  0
M  END
>  <Name_Molregno>
199926

>  <Dopamine transporter>
7.59

>  <Norepinephrine transporter>
6.58

>  <Serotonin transporter>
6.11

$$$$
200006
  Marvin  02231216192D 0   1.00000     0.00000     0

 31 33  0  0  0  0  0  0  0  0999 V2000
   -0.1603    2.0026    0.0000 F   0  0  0  0  0  0  0  0  0
    0.5542    1.5901    0.0000 C   0  0  0  0  0  0  0  0  0
    1.2687    2.0026    0.0000 C   0  0  0  0  0  0  0  0  0
    1.9831    1.5901    0.0000 C   0  0  0  0  0  0  0  0  0
    1.9831    0.7651    0.0000 C   0  0  0  0  0  0  0  0  0
    1.2687    0.3526    0.0000 C   0  0  0  0  0  0  0  0  0
    0.5542    0.7651    0.0000 C   0  0  0  0  0  0  0  0  0
    2.6976    0.3526    0.0000 C   0  0  0  0  0  0  0  0  0
    3.4121    0.7651    0.0000 C   0  0  0  0  0  0  0  0  0
    4.1266    0.3526    0.0000 N   0  0  0  0  0  0  0  0  0
    4.8410    0.7651    0.0000 C   0  0  0  0  0  0  0  0  0
    5.5555    0.3526    0.0000 C   0  0  0  0  0  0  0  0  0
    6.2700    0.7651    0.0000 N   0  0  0  0  0  0  0  0  0
    6.9844    0.3526    0.0000 C   0  0  0  0  0  0  0  0  0
    7.6989    0.7651    0.0000 C   0  0  0  0  0  0  0  0  0
    8.4134    0.3526    0.0000 O   0  0  0  0  0  0  0  0  0
    9.1279    0.7651    0.0000 C   0  0  0  0  0  0  0  0  0
    9.8423    0.3526    0.0000 C   0  0  0  0  0  0  0  0  0
   10.5568    0.7651    0.0000 C   0  0  0  0  0  0  0  0  0
   11.2713    0.3526    0.0000 C   0  0  0  0  0  0  0  0  0
   11.2713   -0.4724    0.0000 C   0  0  0  0  0  0  0  0  0
   10.5568   -0.8849    0.0000 C   0  0  0  0  0  0  0  0  0
    9.8423   -0.4724    0.0000 C   0  0  0  0  0  0  0  0  0
    9.1279    1.5901    0.0000 C   0  0  0  0  0  0  0  0  0
    8.4134    2.0026    0.0000 C   0  0  0  0  0  0  0  0  0
    8.4134    2.8276    0.0000 C   0  0  0  0  0  0  0  0  0
    9.1279    3.2401    0.0000 C   0  0  0  0  0  0  0  0  0
    9.8423    2.8276    0.0000 C   0  0  0  0  0  0  0  0  0
    9.8423    2.0026    0.0000 C   0  0  0  0  0  0  0  0  0
    6.2700    1.5901    0.0000 C   0  0  0  0  0  0  0  0  0
    4.1266   -0.4724    0.0000 C   0  0  0  0  0  0  0  0  0
  1  2  1  0  0  0  0
  2  3  4  0  0  0  0
  2  7  4  0  0  0  0
  3  4  4  0  0  0  0
  4  5  4  0  0  0  0
  5  6  4  0  0  0  0
  5  8  1  0  0  0  0
  6  7  4  0  0  0  0
  8  9  1  0  0  0  0
  9 10  1  0  0  0  0
 10 11  1  0  0  0  0
 10 31  1  0  0  0  0
 11 12  1  0  0  0  0
 12 13  1  0  0  0  0
 13 14  1  0  0  0  0
 13 30  1  0  0  0  0
 14 15  1  0  0  0  0
 15 16  1  0  0  0  0
 16 17  1  0  0  0  0
 17 18  1  0  0  0  0
 17 24  1  0  0  0  0
 18 19  4  0  0  0  0
 18 23  4  0  0  0  0
 19 20  4  0  0  0  0
 20 21  4  0  0  0  0
 21 22  4  0  0  0  0
 22 23  4  0  0  0  0
 24 25  4  0  0  0  0
 24 29  4  0  0  0  0
 25 26  4  0  0  0  0
 26 27  4  0  0  0  0
 27 28  4  0  0  0  0
 28 29  4  0  0  0  0
M  END
>  <Name_Molregno>
200006

>  <Dopamine transporter>
7.52

>  <Norepinephrine transporter>
6.43

>  <Serotonin transporter>
6.26

$$$$
200010
  Marvin  02231216192D 0   1.00000     0.00000     0

 32 34  0  0  0  0  0  0  0  0999 V2000
   -4.9116    0.5915    0.0000 O   0  0  0  0  0  0  0  0  0
   -5.6261    0.1790    0.0000 C   0  0  0  0  0  0  0  0  0
   -6.3405    0.5915    0.0000 C   0  0  0  0  0  0  0  0  0
   -7.0550    0.1790    0.0000 C   0  0  0  0  0  0  0  0  0
   -7.7695    0.5915    0.0000 C   0  0  0  0  0  0  0  0  0
   -7.7695    1.4165    0.0000 C   0  0  0  0  0  0  0  0  0
   -7.0550    1.8290    0.0000 C   0  0  0  0  0  0  0  0  0
   -6.3405    1.4165    0.0000 C   0  0  0  0  0  0  0  0  0
   -5.6261   -0.6460    0.0000 C   0  0  0  0  0  0  0  0  0
   -4.9116   -1.0585    0.0000 C   0  0  0  0  0  0  0  0  0
   -4.9116   -1.8835    0.0000 C   0  0  0  0  0  0  0  0  0
   -5.6261   -2.2960    0.0000 C   0  0  0  0  0  0  0  0  0
   -6.3405   -1.8835    0.0000 C   0  0  0  0  0  0  0  0  0
   -6.3405   -1.0585    0.0000 C   0  0  0  0  0  0  0  0  0
   -4.1971    0.1790    0.0000 C   0  0  0  0  0  0  0  0  0
   -3.4826    0.5915    0.0000 C   0  0  0  0  0  0  0  0  0
   -2.7682    0.1790    0.0000 N   0  0  0  0  0  0  0  0  0
   -2.0537    0.5915    0.0000 C   0  0  0  0  0  0  0  0  0
   -1.3392    0.1790    0.0000 C   0  0  0  0  0  0  0  0  0
   -0.6248    0.5915    0.0000 C   0  0  0  0  0  0  0  0  0
    0.0897    0.1790    0.0000 N   0  0  0  0  0  0  0  0  0
    0.8042    0.5915    0.0000 C   0  0  0  0  0  0  0  0  0
    1.5187    0.1790    0.0000 C   0  0  0  0  0  0  0  0  0
    2.2331    0.5915    0.0000 C   0  0  0  0  0  0  0  0  0
    2.9476    0.1790    0.0000 C   0  0  0  0  0  0  0  0  0
    3.6621    0.5915    0.0000 C   0  0  0  0  0  0  0  0  0
    4.3765    0.1790    0.0000 C   0  0  0  0  0  0  0  0  0
    4.3765   -0.6460    0.0000 C   0  0  0  0  0  0  0  0  0
    3.6621   -1.0585    0.0000 C   0  0  0  0  0  0  0  0  0
    2.9476   -0.6460    0.0000 C   0  0  0  0  0  0  0  0  0
    0.0897   -0.6460    0.0000 C   0  0  0  0  0  0  0  0  0
   -2.7682   -0.6460    0.0000 C   0  0  0  0  0  0  0  0  0
  1  2  1  0  0  0  0
  1 15  1  0  0  0  0
  2  3  1  0  0  0  0
  2  9  1  0  0  0  0
  3  4  4  0  0  0  0
  3  8  4  0  0  0  0
  4  5  4  0  0  0  0
  5  6  4  0  0  0  0
  6  7  4  0  0  0  0
  7  8  4  0  0  0  0
  9 10  4  0  0  0  0
  9 14  4  0  0  0  0
 10 11  4  0  0  0  0
 11 12  4  0  0  0  0
 12 13  4  0  0  0  0
 13 14  4  0  0  0  0
 15 16  1  0  0  0  0
 16 17  1  0  0  0  0
 17 18  1  0  0  0  0
 17 32  1  0  0  0  0
 18 19  1  0  0  0  0
 19 20  1  0  0  0  0
 20 21  1  0  0  0  0
 21 22  1  0  0  0  0
 21 31  1  0  0  0  0
 22 23  1  0  0  0  0
 23 24  1  0  0  0  0
 24 25  1  0  0  0  0
 25 26  4  0  0  0  0
 25 30  4  0  0  0  0
 26 27  4  0  0  0  0
 27 28  4  0  0  0  0
 28 29  4  0  0  0  0
 29 30  4  0  0  0  0
M  END
>  <Name_Molregno>
200010

>  <Dopamine transporter>
6.91

>  <Norepinephrine transporter>
7.52

>  <Serotonin transporter>
6.36

$$$$
200046
  Marvin  02231216192D 0   1.00000     0.00000     0

 31 33  0  0  0  0  0  0  0  0999 V2000
   -0.1494    3.7928    0.0000 F   0  0  0  0  0  0  0  0  0
    0.5651    3.3803    0.0000 C   0  0  0  0  0  0  0  0  0
    1.2795    3.7928    0.0000 C   0  0  0  0  0  0  0  0  0
    1.9940    3.3803    0.0000 C   0  0  0  0  0  0  0  0  0
    1.9940    2.5553    0.0000 C   0  0  0  0  0  0  0  0  0
    1.2795    2.1428    0.0000 C   0  0  0  0  0  0  0  0  0
    0.5651    2.5553    0.0000 C   0  0  0  0  0  0  0  0  0
    2.7085    2.1428    0.0000 C   0  0  0  0  0  0  0  0  0
    3.4230    2.5553    0.0000 O   0  0  0  0  0  0  0  0  0
    4.1374    2.1428    0.0000 C   0  0  0  0  0  0  0  0  0
    4.8519    2.5553    0.0000 C   0  0  0  0  0  0  0  0  0
    5.5664    2.1428    0.0000 N   0  0  0  0  0  0  0  0  0
    6.2808    2.5553    0.0000 C   0  0  0  0  0  0  0  0  0
    6.9953    2.1428    0.0000 C   0  0  0  0  0  0  0  0  0
    7.7098    2.5553    0.0000 N   0  0  0  0  0  0  0  0  0
    8.4243    2.1428    0.0000 C   0  0  0  0  0  0  0  0  0
    8.4243    1.3178    0.0000 O   0  0  0  0  0  0  0  0  0
    9.1387    2.5553    0.0000 C   0  0  0  0  0  0  0  0  0
    9.8532    2.1428    0.0000 C   0  0  0  0  0  0  0  0  0
   10.5677    2.5553    0.0000 C   0  0  0  0  0  0  0  0  0
   11.2821    2.1428    0.0000 C   0  0  0  0  0  0  0  0  0
   11.2821    1.3178    0.0000 C   0  0  0  0  0  0  0  0  0
   10.5677    0.9053    0.0000 C   0  0  0  0  0  0  0  0  0
    9.8532    1.3178    0.0000 C   0  0  0  0  0  0  0  0  0
    2.7085    1.3178    0.0000 C   0  0  0  0  0  0  0  0  0
    3.4230    0.9053    0.0000 C   0  0  0  0  0  0  0  0  0
    3.4230    0.0803    0.0000 C   0  0  0  0  0  0  0  0  0
    2.7085   -0.3322    0.0000 C   0  0  0  0  0  0  0  0  0
    2.7085   -1.1572    0.0000 F   0  0  0  0  0  0  0  0  0
    1.9940    0.0803    0.0000 C   0  0  0  0  0  0  0  0  0
    1.9940    0.9053    0.0000 C   0  0  0  0  0  0  0  0  0
  1  2  1  0  0  0  0
  2  3  4  0  0  0  0
  2  7  4  0  0  0  0
  3  4  4  0  0  0  0
  4  5  4  0  0  0  0
  5  6  4  0  0  0  0
  5  8  1  0  0  0  0
  6  7  4  0  0  0  0
  8  9  1  0  0  0  0
  8 25  1  0  0  0  0
  9 10  1  0  0  0  0
 10 11  1  0  0  0  0
 11 12  1  0  0  0  0
 12 13  1  0  0  0  0
 13 14  1  0  0  0  0
 14 15  1  0  0  0  0
 15 16  1  0  0  0  0
 16 17  2  0  0  0  0
 16 18  1  0  0  0  0
 18 19  1  0  0  0  0
 19 20  4  0  0  0  0
 19 24  4  0  0  0  0
 20 21  4  0  0  0  0
 21 22  4  0  0  0  0
 22 23  4  0  0  0  0
 23 24  4  0  0  0  0
 25 26  4  0  0  0  0
 25 31  4  0  0  0  0
 26 27  4  0  0  0  0
 27 28  4  0  0  0  0
 28 29  1  0  0  0  0
 28 30  4  0  0  0  0
 30 31  4  0  0  0  0
M  END
>  <Name_Molregno>
200046

>  <Dopamine transporter>
7.27

>  <Norepinephrine transporter>
6.22

>  <Serotonin transporter>
6.25

$$$$
200049
  Marvin  02231216192D 0   1.00000     0.00000     0

 32 34  0  0  0  0  0  0  0  0999 V2000
   -0.1305    3.7856    0.0000 F   0  0  0  0  0  0  0  0  0
    0.5840    3.3731    0.0000 C   0  0  0  0  0  0  0  0  0
    1.2984    3.7856    0.0000 C   0  0  0  0  0  0  0  0  0
    2.0129    3.3731    0.0000 C   0  0  0  0  0  0  0  0  0
    2.0129    2.5481    0.0000 C   0  0  0  0  0  0  0  0  0
    1.2984    2.1356    0.0000 C   0  0  0  0  0  0  0  0  0
    0.5840    2.5481    0.0000 C   0  0  0  0  0  0  0  0  0
    2.7274    2.1356    0.0000 C   0  0  0  0  0  0  0  0  0
    3.4418    2.5481    0.0000 O   0  0  0  0  0  0  0  0  0
    4.1563    2.1356    0.0000 C   0  0  0  0  0  0  0  0  0
    4.8708    2.5481    0.0000 C   0  0  0  0  0  0  0  0  0
    5.5853    2.1356    0.0000 N   0  0  0  0  0  0  0  0  0
    6.2997    2.5481    0.0000 C   0  0  0  0  0  0  0  0  0
    7.0142    2.1356    0.0000 C   0  0  0  0  0  0  0  0  0
    7.7287    2.5481    0.0000 N   0  0  0  0  0  0  0  0  0
    8.4431    2.1356    0.0000 C   0  0  0  0  0  0  0  0  0
    8.4431    1.3106    0.0000 O   0  0  0  0  0  0  0  0  0
    9.1576    2.5481    0.0000 C   0  0  0  0  0  0  0  0  0
    9.8721    2.1356    0.0000 C   0  0  0  0  0  0  0  0  0
   10.5866    2.5481    0.0000 C   0  0  0  0  0  0  0  0  0
   11.3010    2.1356    0.0000 C   0  0  0  0  0  0  0  0  0
   11.3010    1.3106    0.0000 C   0  0  0  0  0  0  0  0  0
   12.0155    0.8981    0.0000 F   0  0  0  0  0  0  0  0  0
   10.5866    0.8981    0.0000 C   0  0  0  0  0  0  0  0  0
    9.8721    1.3106    0.0000 C   0  0  0  0  0  0  0  0  0
    2.7274    1.3106    0.0000 C   0  0  0  0  0  0  0  0  0
    3.4418    0.8981    0.0000 C   0  0  0  0  0  0  0  0  0
    3.4418    0.0731    0.0000 C   0  0  0  0  0  0  0  0  0
    2.7274   -0.3394    0.0000 C   0  0  0  0  0  0  0  0  0
    2.7274   -1.1644    0.0000 F   0  0  0  0  0  0  0  0  0
    2.0129    0.0731    0.0000 C   0  0  0  0  0  0  0  0  0
    2.0129    0.8981    0.0000 C   0  0  0  0  0  0  0  0  0
  1  2  1  0  0  0  0
  2  3  4  0  0  0  0
  2  7  4  0  0  0  0
  3  4  4  0  0  0  0
  4  5  4  0  0  0  0
  5  6  4  0  0  0  0
  5  8  1  0  0  0  0
  6  7  4  0  0  0  0
  8  9  1  0  0  0  0
  8 26  1  0  0  0  0
  9 10  1  0  0  0  0
 10 11  1  0  0  0  0
 11 12  1  0  0  0  0
 12 13  1  0  0  0  0
 13 14  1  0  0  0  0
 14 15  1  0  0  0  0
 15 16  1  0  0  0  0
 16 17  2  0  0  0  0
 16 18  1  0  0  0  0
 18 19  1  0  0  0  0
 19 20  4  0  0  0  0
 19 25  4  0  0  0  0
 20 21  4  0  0  0  0
 21 22  4  0  0  0  0
 22 23  1  0  0  0  0
 22 24  4  0  0  0  0
 24 25  4  0  0  0  0
 26 27  4  0  0  0  0
 26 32  4  0  0  0  0
 27 28  4  0  0  0  0
 28 29  4  0  0  0  0
 29 30  1  0  0  0  0
 29 31  4  0  0  0  0
 31 32  4  0  0  0  0
M  END
>  <Name_Molregno>
200049

>  <Dopamine transporter>
7.27

>  <Norepinephrine transporter>
6.07

>  <Serotonin transporter>
6.45

$$$$
200050
  Marvin  02231216192D 0   1.00000     0.00000     0

 32 34  0  0  0  0  0  0  0  0999 V2000
   -0.1686    0.0633    0.0000 Br  0  0  0  0  0  0  0  0  0
    0.5458   -0.3492    0.0000 C   0  0  0  0  0  0  0  0  0
    1.2603    0.0633    0.0000 C   0  0  0  0  0  0  0  0  0
    1.9748   -0.3492    0.0000 C   0  0  0  0  0  0  0  0  0
    1.9748   -1.1742    0.0000 C   0  0  0  0  0  0  0  0  0
    1.2603   -1.5867    0.0000 C   0  0  0  0  0  0  0  0  0
    0.5458   -1.1742    0.0000 C   0  0  0  0  0  0  0  0  0
    2.6892   -1.5867    0.0000 C   0  0  0  0  0  0  0  0  0
    3.4037   -1.1742    0.0000 C   0  0  0  0  0  0  0  0  0
    3.4037   -0.3492    0.0000 O   0  0  0  0  0  0  0  0  0
    4.1182   -1.5867    0.0000 N   0  0  0  0  0  0  0  0  0
    4.8327   -1.1742    0.0000 C   0  0  0  0  0  0  0  0  0
    5.5471   -1.5867    0.0000 C   0  0  0  0  0  0  0  0  0
    6.2616   -1.1742    0.0000 N   0  0  0  0  0  0  0  0  0
    6.9761   -1.5867    0.0000 C   0  0  0  0  0  0  0  0  0
    7.6905   -1.1742    0.0000 C   0  0  0  0  0  0  0  0  0
    8.4050   -1.5867    0.0000 O   0  0  0  0  0  0  0  0  0
    9.1195   -1.1742    0.0000 C   0  0  0  0  0  0  0  0  0
    9.8339   -1.5867    0.0000 C   0  0  0  0  0  0  0  0  0
   10.5484   -1.1742    0.0000 C   0  0  0  0  0  0  0  0  0
   11.2629   -1.5867    0.0000 C   0  0  0  0  0  0  0  0  0
   11.2629   -2.4117    0.0000 C   0  0  0  0  0  0  0  0  0
   11.9774   -2.8242    0.0000 F   0  0  0  0  0  0  0  0  0
   10.5484   -2.8242    0.0000 C   0  0  0  0  0  0  0  0  0
    9.8339   -2.4117    0.0000 C   0  0  0  0  0  0  0  0  0
    9.1195   -0.3492    0.0000 C   0  0  0  0  0  0  0  0  0
    8.4050    0.0633    0.0000 C   0  0  0  0  0  0  0  0  0
    8.4050    0.8883    0.0000 C   0  0  0  0  0  0  0  0  0
    9.1195    1.3008    0.0000 C   0  0  0  0  0  0  0  0  0
    9.1195    2.1258    0.0000 F   0  0  0  0  0  0  0  0  0
    9.8339    0.8883    0.0000 C   0  0  0  0  0  0  0  0  0
    9.8339    0.0633    0.0000 C   0  0  0  0  0  0  0  0  0
  1  2  1  0  0  0  0
  2  3  4  0  0  0  0
  2  7  4  0  0  0  0
  3  4  4  0  0  0  0
  4  5  4  0  0  0  0
  5  6  4  0  0  0  0
  5  8  1  0  0  0  0
  6  7  4  0  0  0  0
  8  9  1  0  0  0  0
  9 10  2  0  0  0  0
  9 11  1  0  0  0  0
 11 12  1  0  0  0  0
 12 13  2  0  0  0  0
 13 14  1  0  0  0  0
 14 15  1  0  0  0  0
 15 16  1  0  0  0  0
 16 17  1  0  0  0  0
 17 18  1  0  0  0  0
 18 19  1  0  0  0  0
 18 26  1  0  0  0  0
 19 20  4  0  0  0  0
 19 25  4  0  0  0  0
 20 21  4  0  0  0  0
 21 22  4  0  0  0  0
 22 23  1  0  0  0  0
 22 24  4  0  0  0  0
 24 25  4  0  0  0  0
 26 27  4  0  0  0  0
 26 32  4  0  0  0  0
 27 28  4  0  0  0  0
 28 29  4  0  0  0  0
 29 30  1  0  0  0  0
 29 31  4  0  0  0  0
 31 32  4  0  0  0  0
M  END
>  <Name_Molregno>
200050

>  <Dopamine transporter>
6.29

>  <Norepinephrine transporter>
5.75

>  <Serotonin transporter>
6.23

$$$$
218269
  Marvin  02231216192D 0   1.00000     0.00000     0

 19 22  0  0  1  0  0  0  0  0999 V2000
    3.3089   -3.3494    0.0000 Cl  0  0  0  0  0  0  0  0  0
    3.2926   -2.5246    0.0000 C   0  0  0  0  0  0  0  0  0
    2.5701   -2.1262    0.0000 C   0  0  0  0  0  0  0  0  0
    2.5539   -1.3014    0.0000 C   0  0  0  0  0  0  0  0  0
    3.2601   -0.8749    0.0000 C   0  0  0  0  0  0  0  0  0
    3.9825   -1.2732    0.0000 C   0  0  0  0  0  0  0  0  0
    3.9988   -2.0981    0.0000 C   0  0  0  0  0  0  0  0  0
    3.2438   -0.0500    0.0000 C   0  0  0  0  0  0  0  0  0
    3.9016    0.4479    0.0000 N   0  0  0  0  0  0  0  0  0
    3.6312    1.2274    0.0000 C   0  0  0  0  0  0  0  0  0
    4.2890    1.7254    0.0000 N   0  0  0  0  0  0  0  0  0
    4.9658    1.2537    0.0000 C   0  0  0  0  0  0  0  0  0
    4.7264    0.4642    0.0000 C   0  0  0  0  0  0  0  0  0
    2.8064    1.2111    0.0000 C   0  0  0  0  0  0  0  0  0
    2.5669    0.4216    0.0000 C   0  0  0  0  0  0  0  0  0
    1.7635    0.2342    0.0000 C   0  0  0  0  0  0  0  0  0
    1.1995    0.8363    0.0000 C   0  0  0  0  0  0  0  0  0
    1.4389    1.6258    0.0000 C   0  0  0  0  0  0  0  0  0
    2.2424    1.8132    0.0000 C   0  0  0  0  0  0  0  0  0
  1  2  1  0  0  0  0
  2  3  4  0  0  0  0
  2  7  4  0  0  0  0
  3  4  4  0  0  0  0
  4  5  4  0  0  0  0
  5  6  4  0  0  0  0
  5  8  1  0  0  0  0
  6  7  4  0  0  0  0
  8  9  1  0  0  0  0
  8 15  1  0  0  0  0
  9 10  1  0  0  0  0
  9 13  1  0  0  0  0
 10 11  2  0  0  0  0
 10 14  1  0  0  0  0
 11 12  1  0  0  0  0
 12 13  1  0  0  0  0
 14 15  4  0  0  0  0
 14 19  4  0  0  0  0
 15 16  4  0  0  0  0
 16 17  4  0  0  0  0
 17 18  4  0  0  0  0
 18 19  4  0  0  0  0
M  END
>  <Name_Molregno>
218269

>  <Dopamine transporter>
7.64

>  <Norepinephrine transporter>
6.77

>  <Serotonin transporter>
7.59

$$$$
218282
  Marvin  02231216192D 0   1.00000     0.00000     0

 21 24  0  0  1  0  0  0  0  0999 V2000
    4.9310   -2.8617    0.0000 Cl  0  0  0  0  0  0  0  0  0
    4.3790   -2.2486    0.0000 C   0  0  0  0  0  0  0  0  0
    3.5720   -2.4201    0.0000 C   0  0  0  0  0  0  0  0  0
    3.0200   -1.8070    0.0000 C   0  0  0  0  0  0  0  0  0
    3.2749   -1.0224    0.0000 C   0  0  0  0  0  0  0  0  0
    4.0819   -0.8509    0.0000 C   0  0  0  0  0  0  0  0  0
    4.6339   -1.4640    0.0000 C   0  0  0  0  0  0  0  0  0
    2.7229   -0.4093    0.0000 C   0  0  0  0  0  0  0  0  0
    2.1709   -1.0224    0.0000 O   0  0  0  0  0  0  0  0  0
    3.3903    0.0756    0.0000 N   0  0  0  0  0  0  0  0  0
    3.1354    0.8602    0.0000 C   0  0  0  0  0  0  0  0  0
    3.6874    1.4733    0.0000 N   0  0  0  0  0  0  0  0  0
    4.4944    1.3018    0.0000 C   0  0  0  0  0  0  0  0  0
    4.7494    0.5172    0.0000 C   0  0  0  0  0  0  0  0  0
    4.1973   -0.0959    0.0000 C   0  0  0  0  0  0  0  0  0
    2.3104    0.8602    0.0000 C   0  0  0  0  0  0  0  0  0
    2.0555    0.0756    0.0000 C   0  0  0  0  0  0  0  0  0
    1.2485   -0.0959    0.0000 C   0  0  0  0  0  0  0  0  0
    0.6965    0.5172    0.0000 C   0  0  0  0  0  0  0  0  0
    0.9514    1.3018    0.0000 C   0  0  0  0  0  0  0  0  0
    1.7584    1.4733    0.0000 C   0  0  0  0  0  0  0  0  0
  1  2  1  0  0  0  0
  2  3  4  0  0  0  0
  2  7  4  0  0  0  0
  3  4  4  0  0  0  0
  4  5  4  0  0  0  0
  5  6  4  0  0  0  0
  5  8  1  0  0  0  0
  6  7  4  0  0  0  0
  8  9  1  0  0  0  0
  8 10  1  0  0  0  0
  8 17  1  0  0  0  0
 10 11  1  0  0  0  0
 10 15  1  0  0  0  0
 11 12  2  0  0  0  0
 11 16  1  0  0  0  0
 12 13  1  0  0  0  0
 13 14  1  0  0  0  0
 14 15  1  0  0  0  0
 16 17  4  0  0  0  0
 16 21  4  0  0  0  0
 17 18  4  0  0  0  0
 18 19  4  0  0  0  0
 19 20  4  0  0  0  0
 20 21  4  0  0  0  0
M  END
>  <Name_Molregno>
218282

>  <Norepinephrine transporter>
7.74

>  <Serotonin transporter>
7.41

$$$$
218306
  Marvin  02231216192D 0   1.00000     0.00000     0

 21 24  0  0  1  0  0  0  0  0999 V2000
    5.2060   -2.3788    0.0000 Cl  0  0  0  0  0  0  0  0  0
    4.6420   -1.7767    0.0000 C   0  0  0  0  0  0  0  0  0
    3.8385   -1.9641    0.0000 C   0  0  0  0  0  0  0  0  0
    3.2745   -1.3620    0.0000 C   0  0  0  0  0  0  0  0  0
    3.5139   -0.5725    0.0000 C   0  0  0  0  0  0  0  0  0
    4.3174   -0.3851    0.0000 C   0  0  0  0  0  0  0  0  0
    4.8814   -0.9872    0.0000 C   0  0  0  0  0  0  0  0  0
    2.9499    0.0296    0.0000 C   0  0  0  0  0  0  0  0  0
    2.4101   -0.5943    0.0000 O   0  0  0  0  0  0  0  0  0
    3.6077    0.5276    0.0000 N   0  0  0  0  0  0  0  0  0
    3.3373    1.3070    0.0000 C   0  0  0  0  0  0  0  0  0
    3.9951    1.8050    0.0000 N   0  0  0  0  0  0  0  0  0
    4.6719    1.3333    0.0000 C   0  0  0  0  0  0  0  0  0
    4.4325    0.5438    0.0000 C   0  0  0  0  0  0  0  0  0
    2.5125    1.2908    0.0000 C   0  0  0  0  0  0  0  0  0
    2.2731    0.5013    0.0000 C   0  0  0  0  0  0  0  0  0
    1.4696    0.3139    0.0000 C   0  0  0  0  0  0  0  0  0
    0.9056    0.9160    0.0000 C   0  0  0  0  0  0  0  0  0
    1.1450    1.7055    0.0000 C   0  0  0  0  0  0  0  0  0
    1.9485    1.8929    0.0000 C   0  0  0  0  0  0  0  0  0
    2.1879    2.6824    0.0000 F   0  0  0  0  0  0  0  0  0
  1  2  1  0  0  0  0
  2  3  4  0  0  0  0
  2  7  4  0  0  0  0
  3  4  4  0  0  0  0
  4  5  4  0  0  0  0
  5  6  4  0  0  0  0
  5  8  1  0  0  0  0
  6  7  4  0  0  0  0
  8  9  1  0  0  0  0
  8 10  1  0  0  0  0
  8 16  1  0  0  0  0
 10 11  1  0  0  0  0
 10 14  1  0  0  0  0
 11 12  2  0  0  0  0
 11 15  1  0  0  0  0
 12 13  1  0  0  0  0
 13 14  1  0  0  0  0
 15 16  4  0  0  0  0
 15 20  4  0  0  0  0
 16 17  4  0  0  0  0
 17 18  4  0  0  0  0
 18 19  4  0  0  0  0
 19 20  4  0  0  0  0
 20 21  1  0  0  0  0
M  END
>  <Name_Molregno>
218306

>  <Dopamine transporter>
7.64

>  <Norepinephrine transporter>
9.05

>  <Serotonin transporter>
7.42

$$$$
218401
  Marvin  02231216192D 0   1.00000     0.00000     0

 19 22  0  0  1  0  0  0  0  0999 V2000
   -1.0884   -1.7845    0.0000 O   0  0  0  0  0  0  0  0  0
   -0.5485   -1.1607    0.0000 C   0  0  0  0  0  0  0  0  0
    0.1092   -0.6627    0.0000 N   0  0  0  0  0  0  0  0  0
   -0.1612    0.1168    0.0000 C   0  0  0  0  0  0  0  0  0
    0.4966    0.6148    0.0000 N   0  0  0  0  0  0  0  0  0
    1.1735    0.1431    0.0000 C   0  0  0  0  0  0  0  0  0
    0.9340   -0.6464    0.0000 C   0  0  0  0  0  0  0  0  0
   -0.9860    0.1005    0.0000 C   0  0  0  0  0  0  0  0  0
   -1.2254   -0.6890    0.0000 C   0  0  0  0  0  0  0  0  0
   -2.0288   -0.8764    0.0000 C   0  0  0  0  0  0  0  0  0
   -2.5929   -0.2743    0.0000 C   0  0  0  0  0  0  0  0  0
   -2.3534    0.5152    0.0000 C   0  0  0  0  0  0  0  0  0
   -1.5500    0.7026    0.0000 C   0  0  0  0  0  0  0  0  0
    0.0155   -1.7627    0.0000 C   0  0  0  0  0  0  0  0  0
    0.8189   -1.5753    0.0000 C   0  0  0  0  0  0  0  0  0
    1.3829   -2.1774    0.0000 C   0  0  0  0  0  0  0  0  0
    1.1435   -2.9669    0.0000 C   0  0  0  0  0  0  0  0  0
    0.3401   -3.1543    0.0000 C   0  0  0  0  0  0  0  0  0
   -0.2240   -2.5522    0.0000 C   0  0  0  0  0  0  0  0  0
  1  2  1  0  0  0  0
  2  3  1  0  0  0  0
  2  9  1  0  0  0  0
  2 14  1  0  0  0  0
  3  4  1  0  0  0  0
  3  7  1  0  0  0  0
  4  5  2  0  0  0  0
  4  8  1  0  0  0  0
  5  6  1  0  0  0  0
  6  7  1  0  0  0  0
  8  9  4  0  0  0  0
  8 13  4  0  0  0  0
  9 10  4  0  0  0  0
 10 11  4  0  0  0  0
 11 12  4  0  0  0  0
 12 13  4  0  0  0  0
 14 15  4  0  0  0  0
 14 19  4  0  0  0  0
 15 16  4  0  0  0  0
 16 17  4  0  0  0  0
 17 18  4  0  0  0  0
 18 19  4  0  0  0  0
M  END
>  <Name_Molregno>
218401

>  <Dopamine transporter>
5.97

>  <Norepinephrine transporter>
7

>  <Serotonin transporter>
5.75

$$$$
218824
  Marvin  02231216192D 0   1.00000     0.00000     0

 22 25  0  0  1  0  0  0  0  0999 V2000
    5.2594   -2.3950    0.0000 Cl  0  0  0  0  0  0  0  0  0
    4.6953   -1.7929    0.0000 C   0  0  0  0  0  0  0  0  0
    3.8919   -1.9803    0.0000 C   0  0  0  0  0  0  0  0  0
    3.3279   -1.3782    0.0000 C   0  0  0  0  0  0  0  0  0
    3.5673   -0.5887    0.0000 C   0  0  0  0  0  0  0  0  0
    4.3708   -0.4013    0.0000 C   0  0  0  0  0  0  0  0  0
    4.9348   -1.0034    0.0000 C   0  0  0  0  0  0  0  0  0
    3.0033    0.0133    0.0000 C   0  0  0  0  0  0  0  0  0
    2.4635   -0.6105    0.0000 O   0  0  0  0  0  0  0  0  0
    3.6611    0.5113    0.0000 N   0  0  0  0  0  0  0  0  0
    3.3907    1.2908    0.0000 C   0  0  0  0  0  0  0  0  0
    4.0485    1.7888    0.0000 N   0  0  0  0  0  0  0  0  0
    4.7253    1.3171    0.0000 C   0  0  0  0  0  0  0  0  0
    4.4859    0.5276    0.0000 C   0  0  0  0  0  0  0  0  0
    2.5659    1.2745    0.0000 C   0  0  0  0  0  0  0  0  0
    2.3264    0.4850    0.0000 C   0  0  0  0  0  0  0  0  0
    1.5230    0.2976    0.0000 C   0  0  0  0  0  0  0  0  0
    1.2836   -0.4919    0.0000 O   0  0  0  0  0  0  0  0  0
    1.8476   -1.0940    0.0000 C   0  0  0  0  0  0  0  0  0
    0.9590    0.8997    0.0000 C   0  0  0  0  0  0  0  0  0
    1.1984    1.6892    0.0000 C   0  0  0  0  0  0  0  0  0
    2.0019    1.8766    0.0000 C   0  0  0  0  0  0  0  0  0
  1  2  1  0  0  0  0
  2  3  4  0  0  0  0
  2  7  4  0  0  0  0
  3  4  4  0  0  0  0
  4  5  4  0  0  0  0
  5  6  4  0  0  0  0
  5  8  1  0  0  0  0
  6  7  4  0  0  0  0
  8  9  1  0  0  0  0
  8 10  1  0  0  0  0
  8 16  1  0  0  0  0
 10 11  1  0  0  0  0
 10 14  1  0  0  0  0
 11 12  2  0  0  0  0
 11 15  1  0  0  0  0
 12 13  1  0  0  0  0
 13 14  1  0  0  0  0
 15 16  4  0  0  0  0
 15 22  4  0  0  0  0
 16 17  4  0  0  0  0
 17 18  1  0  0  0  0
 17 20  4  0  0  0  0
 18 19  1  0  0  0  0
 20 21  4  0  0  0  0
 21 22  4  0  0  0  0
M  END
>  <Name_Molregno>
218824

>  <Dopamine transporter>
7.99

>  <Norepinephrine transporter>
7.64

>  <Serotonin transporter>
5.7

$$$$
218825
  Marvin  02231216192D 0   1.00000     0.00000     0

 22 25  0  0  1  0  0  0  0  0999 V2000
    5.0805   -1.0458    0.0000 Cl  0  0  0  0  0  0  0  0  0
    4.2771   -0.8584    0.0000 C   0  0  0  0  0  0  0  0  0
    3.7131   -1.4605    0.0000 C   0  0  0  0  0  0  0  0  0
    2.9096   -1.2731    0.0000 C   0  0  0  0  0  0  0  0  0
    2.6702   -0.4836    0.0000 C   0  0  0  0  0  0  0  0  0
    3.2342    0.1185    0.0000 C   0  0  0  0  0  0  0  0  0
    4.0377   -0.0689    0.0000 C   0  0  0  0  0  0  0  0  0
    4.6017    0.5332    0.0000 Cl  0  0  0  0  0  0  0  0  0
    1.8454   -0.4673    0.0000 C   0  0  0  0  0  0  0  0  0
    1.5750   -1.2467    0.0000 N   0  0  0  0  0  0  0  0  0
    0.7502   -1.2305    0.0000 C   0  0  0  0  0  0  0  0  0
    0.5108   -0.4410    0.0000 C   0  0  0  0  0  0  0  0  0
    1.1876    0.0307    0.0000 N   0  0  0  0  0  0  0  0  0
    2.2328   -1.7447    0.0000 C   0  0  0  0  0  0  0  0  0
    2.6235   -2.4713    0.0000 O   0  0  0  0  0  0  0  0  0
    1.8137   -2.4554    0.0000 C   0  0  0  0  0  0  0  0  0
    2.2196   -3.1736    0.0000 C   0  0  0  0  0  0  0  0  0
    1.8005   -3.8842    0.0000 C   0  0  0  0  0  0  0  0  0
    0.9755   -3.8766    0.0000 C   0  0  0  0  0  0  0  0  0
    0.5564   -4.5872    0.0000 Cl  0  0  0  0  0  0  0  0  0
    0.5696   -3.1584    0.0000 C   0  0  0  0  0  0  0  0  0
    0.9887   -2.4477    0.0000 C   0  0  0  0  0  0  0  0  0
  1  2  1  0  0  0  0
  2  3  4  0  0  0  0
  2  7  4  0  0  0  0
  3  4  4  0  0  0  0
  4  5  4  0  0  0  0
  4 14  1  0  0  0  0
  5  6  4  0  0  0  0
  5  9  1  0  0  0  0
  6  7  4  0  0  0  0
  7  8  1  0  0  0  0
  9 10  1  0  0  0  0
  9 13  2  0  0  0  0
 10 11  1  0  0  0  0
 10 14  1  0  0  0  0
 11 12  1  0  0  0  0
 12 13  1  0  0  0  0
 14 15  1  0  0  0  0
 14 16  1  0  0  0  0
 16 17  4  0  0  0  0
 16 22  4  0  0  0  0
 17 18  4  0  0  0  0
 18 19  4  0  0  0  0
 19 20  1  0  0  0  0
 19 21  4  0  0  0  0
 21 22  4  0  0  0  0
M  END
>  <Name_Molregno>
218825

>  <Dopamine transporter>
8.98

>  <Norepinephrine transporter>
7.4

>  <Serotonin transporter>
5.87

$$$$
218833
  Marvin  02231216192D 0   1.00000     0.00000     0

 22 25  0  0  1  0  0  0  0  0999 V2000
    4.6540   -2.2653    0.0000 O   0  0  0  0  0  0  0  0  0
    5.4610   -2.0938    0.0000 C   0  0  0  0  0  0  0  0  0
    4.1020   -1.6522    0.0000 C   0  0  0  0  0  0  0  0  0
    3.2950   -1.8237    0.0000 C   0  0  0  0  0  0  0  0  0
    2.7430   -1.2106    0.0000 C   0  0  0  0  0  0  0  0  0
    2.9979   -0.4260    0.0000 C   0  0  0  0  0  0  0  0  0
    3.8049   -0.2545    0.0000 C   0  0  0  0  0  0  0  0  0
    4.3569   -0.8676    0.0000 C   0  0  0  0  0  0  0  0  0
    2.4459    0.1871    0.0000 C   0  0  0  0  0  0  0  0  0
    1.8938   -0.4260    0.0000 O   0  0  0  0  0  0  0  0  0
    3.1133    0.6720    0.0000 N   0  0  0  0  0  0  0  0  0
    2.8584    1.4566    0.0000 C   0  0  0  0  0  0  0  0  0
    3.4104    2.0697    0.0000 N   0  0  0  0  0  0  0  0  0
    4.2174    1.8982    0.0000 C   0  0  0  0  0  0  0  0  0
    4.4723    1.1136    0.0000 C   0  0  0  0  0  0  0  0  0
    3.9203    0.5005    0.0000 C   0  0  0  0  0  0  0  0  0
    2.0334    1.4566    0.0000 C   0  0  0  0  0  0  0  0  0
    1.7784    0.6720    0.0000 C   0  0  0  0  0  0  0  0  0
    0.9715    0.5005    0.0000 C   0  0  0  0  0  0  0  0  0
    0.4194    1.1136    0.0000 C   0  0  0  0  0  0  0  0  0
    0.6744    1.8982    0.0000 C   0  0  0  0  0  0  0  0  0
    1.4813    2.0697    0.0000 C   0  0  0  0  0  0  0  0  0
  1  2  1  0  0  0  0
  1  3  1  0  0  0  0
  3  4  4  0  0  0  0
  3  8  4  0  0  0  0
  4  5  4  0  0  0  0
  5  6  4  0  0  0  0
  6  7  4  0  0  0  0
  6  9  1  0  0  0  0
  7  8  4  0  0  0  0
  9 10  1  0  0  0  0
  9 11  1  0  0  0  0
  9 18  1  0  0  0  0
 11 12  1  0  0  0  0
 11 16  1  0  0  0  0
 12 13  2  0  0  0  0
 12 17  1  0  0  0  0
 13 14  1  0  0  0  0
 14 15  1  0  0  0  0
 15 16  1  0  0  0  0
 17 18  4  0  0  0  0
 17 22  4  0  0  0  0
 18 19  4  0  0  0  0
 19 20  4  0  0  0  0
 20 21  4  0  0  0  0
 21 22  4  0  0  0  0
M  END
>  <Name_Molregno>
218833

>  <Dopamine transporter>
7.44

>  <Norepinephrine transporter>
7.08

>  <Serotonin transporter>
7.25

$$$$
218853
  Marvin  02231216192D 0   1.00000     0.00000     0

 21 24  0  0  1  0  0  0  0  0999 V2000
   -1.2059   -1.7224    0.0000 O   0  0  0  0  0  0  0  0  0
   -0.6539   -1.1093    0.0000 C   0  0  0  0  0  0  0  0  0
    0.0136   -0.6243    0.0000 N   0  0  0  0  0  0  0  0  0
   -0.2414    0.1603    0.0000 C   0  0  0  0  0  0  0  0  0
    0.3107    0.7734    0.0000 N   0  0  0  0  0  0  0  0  0
    1.1176    0.6019    0.0000 C   0  0  0  0  0  0  0  0  0
    1.3726   -0.1828    0.0000 C   0  0  0  0  0  0  0  0  0
    0.8205   -0.7959    0.0000 C   0  0  0  0  0  0  0  0  0
   -1.0664    0.1603    0.0000 C   0  0  0  0  0  0  0  0  0
   -1.3213   -0.6243    0.0000 C   0  0  0  0  0  0  0  0  0
   -2.1283   -0.7959    0.0000 C   0  0  0  0  0  0  0  0  0
   -2.6803   -0.1828    0.0000 C   0  0  0  0  0  0  0  0  0
   -2.4254    0.6019    0.0000 C   0  0  0  0  0  0  0  0  0
   -1.6184    0.7734    0.0000 C   0  0  0  0  0  0  0  0  0
   -0.1018   -1.7224    0.0000 C   0  0  0  0  0  0  0  0  0
    0.7051   -1.5508    0.0000 C   0  0  0  0  0  0  0  0  0
    1.2572   -2.1639    0.0000 C   0  0  0  0  0  0  0  0  0
    1.0022   -2.9485    0.0000 C   0  0  0  0  0  0  0  0  0
    1.5543   -3.5616    0.0000 O   0  0  0  0  0  0  0  0  0
    0.1953   -3.1201    0.0000 C   0  0  0  0  0  0  0  0  0
   -0.3568   -2.5070    0.0000 C   0  0  0  0  0  0  0  0  0
  1  2  1  0  0  0  0
  2  3  1  0  0  0  0
  2 10  1  0  0  0  0
  2 15  1  0  0  0  0
  3  4  1  0  0  0  0
  3  8  1  0  0  0  0
  4  5  2  0  0  0  0
  4  9  1  0  0  0  0
  5  6  1  0  0  0  0
  6  7  1  0  0  0  0
  7  8  1  0  0  0  0
  9 10  4  0  0  0  0
  9 14  4  0  0  0  0
 10 11  4  0  0  0  0
 11 12  4  0  0  0  0
 12 13  4  0  0  0  0
 13 14  4  0  0  0  0
 15 16  4  0  0  0  0
 15 21  4  0  0  0  0
 16 17  4  0  0  0  0
 17 18  4  0  0  0  0
 18 19  1  0  0  0  0
 18 20  4  0  0  0  0
 20 21  4  0  0  0  0
M  END
>  <Name_Molregno>
218853

>  <Dopamine transporter>
7.06

>  <Norepinephrine transporter>
6.42

>  <Serotonin transporter>
7.11

$$$$
218935
  Marvin  02231216192D 0   1.00000     0.00000     0

 22 25  0  0  1  0  0  0  0  0999 V2000
    5.4290   -2.4758    0.0000 Cl  0  0  0  0  0  0  0  0  0
    4.8650   -1.8737    0.0000 C   0  0  0  0  0  0  0  0  0
    4.0615   -2.0611    0.0000 C   0  0  0  0  0  0  0  0  0
    3.4975   -1.4590    0.0000 C   0  0  0  0  0  0  0  0  0
    3.7370   -0.6696    0.0000 C   0  0  0  0  0  0  0  0  0
    4.5404   -0.4822    0.0000 C   0  0  0  0  0  0  0  0  0
    5.1044   -1.0842    0.0000 C   0  0  0  0  0  0  0  0  0
    3.1729   -0.0675    0.0000 C   0  0  0  0  0  0  0  0  0
    2.6331   -0.6913    0.0000 O   0  0  0  0  0  0  0  0  0
    3.8307    0.4305    0.0000 N   0  0  0  0  0  0  0  0  0
    3.5603    1.2100    0.0000 C   0  0  0  0  0  0  0  0  0
    4.2181    1.7080    0.0000 N   0  0  0  0  0  0  0  0  0
    4.8950    1.2363    0.0000 C   0  0  0  0  0  0  0  0  0
    4.6555    0.4468    0.0000 C   0  0  0  0  0  0  0  0  0
    2.7355    1.1937    0.0000 C   0  0  0  0  0  0  0  0  0
    2.4961    0.4042    0.0000 C   0  0  0  0  0  0  0  0  0
    1.6926    0.2168    0.0000 C   0  0  0  0  0  0  0  0  0
    1.1286    0.8189    0.0000 C   0  0  0  0  0  0  0  0  0
    1.3681    1.6084    0.0000 C   0  0  0  0  0  0  0  0  0
    2.1715    1.7958    0.0000 C   0  0  0  0  0  0  0  0  0
    2.4109    2.5853    0.0000 O   0  0  0  0  0  0  0  0  0
    1.8469    3.1874    0.0000 C   0  0  0  0  0  0  0  0  0
  1  2  1  0  0  0  0
  2  3  4  0  0  0  0
  2  7  4  0  0  0  0
  3  4  4  0  0  0  0
  4  5  4  0  0  0  0
  5  6  4  0  0  0  0
  5  8  1  0  0  0  0
  6  7  4  0  0  0  0
  8  9  1  0  0  0  0
  8 10  1  0  0  0  0
  8 16  1  0  0  0  0
 10 11  1  0  0  0  0
 10 14  1  0  0  0  0
 11 12  2  0  0  0  0
 11 15  1  0  0  0  0
 12 13  1  0  0  0  0
 13 14  1  0  0  0  0
 15 16  4  0  0  0  0
 15 20  4  0  0  0  0
 16 17  4  0  0  0  0
 17 18  4  0  0  0  0
 18 19  4  0  0  0  0
 19 20  4  0  0  0  0
 20 21  1  0  0  0  0
 21 22  1  0  0  0  0
M  END
>  <Name_Molregno>
218935

>  <Dopamine transporter>
8.54

>  <Norepinephrine transporter>
8.17

>  <Serotonin transporter>
6.06

$$$$
218936
  Marvin  02231216192D 0   1.00000     0.00000     0

 22 25  0  0  1  0  0  0  0  0999 V2000
    5.5657   -2.4936    0.0000 Cl  0  0  0  0  0  0  0  0  0
    5.0017   -1.8915    0.0000 C   0  0  0  0  0  0  0  0  0
    4.1982   -2.0789    0.0000 C   0  0  0  0  0  0  0  0  0
    3.6342   -1.4768    0.0000 C   0  0  0  0  0  0  0  0  0
    3.8736   -0.6873    0.0000 C   0  0  0  0  0  0  0  0  0
    4.6771   -0.4999    0.0000 C   0  0  0  0  0  0  0  0  0
    5.2411   -1.1020    0.0000 C   0  0  0  0  0  0  0  0  0
    3.3096   -0.0852    0.0000 C   0  0  0  0  0  0  0  0  0
    2.7698   -0.7091    0.0000 O   0  0  0  0  0  0  0  0  0
    3.9674    0.4127    0.0000 N   0  0  0  0  0  0  0  0  0
    3.6970    1.1922    0.0000 C   0  0  0  0  0  0  0  0  0
    4.3548    1.6902    0.0000 N   0  0  0  0  0  0  0  0  0
    5.0316    1.2185    0.0000 C   0  0  0  0  0  0  0  0  0
    4.7922    0.4290    0.0000 C   0  0  0  0  0  0  0  0  0
    2.8722    1.1759    0.0000 C   0  0  0  0  0  0  0  0  0
    2.6328    0.3864    0.0000 C   0  0  0  0  0  0  0  0  0
    1.8293    0.1990    0.0000 C   0  0  0  0  0  0  0  0  0
    1.2653    0.8011    0.0000 C   0  0  0  0  0  0  0  0  0
    0.4619    0.6137    0.0000 O   0  0  0  0  0  0  0  0  0
    0.2225   -0.1758    0.0000 C   0  0  0  0  0  0  0  0  0
    1.5047    1.5906    0.0000 C   0  0  0  0  0  0  0  0  0
    2.3082    1.7780    0.0000 C   0  0  0  0  0  0  0  0  0
  1  2  1  0  0  0  0
  2  3  4  0  0  0  0
  2  7  4  0  0  0  0
  3  4  4  0  0  0  0
  4  5  4  0  0  0  0
  5  6  4  0  0  0  0
  5  8  1  0  0  0  0
  6  7  4  0  0  0  0
  8  9  1  0  0  0  0
  8 10  1  0  0  0  0
  8 16  1  0  0  0  0
 10 11  1  0  0  0  0
 10 14  1  0  0  0  0
 11 12  2  0  0  0  0
 11 15  1  0  0  0  0
 12 13  1  0  0  0  0
 13 14  1  0  0  0  0
 15 16  4  0  0  0  0
 15 22  4  0  0  0  0
 16 17  4  0  0  0  0
 17 18  4  0  0  0  0
 18 19  1  0  0  0  0
 18 21  4  0  0  0  0
 19 20  1  0  0  0  0
 21 22  4  0  0  0  0
M  END
>  <Name_Molregno>
218936

>  <Dopamine transporter>
8.22

>  <Norepinephrine transporter>
7.64

>  <Serotonin transporter>
5.99

$$$$
230063
  Marvin  02231216192D 0   1.00000     0.00000     0

 22 24  0  0  1  0  0  0  0  0999 V2000
    0.1901    1.0783    0.0000 O   0  0  0  0  0  0  0  0  0
    0.9046    0.6658    0.0000 C   0  0  0  0  0  0  0  0  0
    1.6191    1.0783    0.0000 C   0  0  0  0  0  0  0  0  0
    2.3335    0.6658    0.0000 C   0  0  0  0  0  0  0  0  0
    3.0480    1.0783    0.0000 N   0  0  0  0  0  0  0  0  0
    3.7625    0.6658    0.0000 C   0  0  0  0  0  0  0  0  0
    0.9046   -0.1592    0.0000 C   0  0  0  0  0  0  0  0  0
    1.6191   -0.5717    0.0000 C   0  0  0  0  0  0  0  0  0
    1.6191   -1.3967    0.0000 C   0  0  0  0  0  0  0  0  0
    0.9046   -1.8092    0.0000 C   0  0  0  0  0  0  0  0  0
    0.1901   -1.3967    0.0000 C   0  0  0  0  0  0  0  0  0
    0.1901   -0.5717    0.0000 C   0  0  0  0  0  0  0  0  0
   -0.5243    0.6658    0.0000 C   0  0  0  0  0  0  0  0  0
   -1.2388    1.0783    0.0000 C   0  0  0  0  0  0  0  0  0
   -1.9533    0.6658    0.0000 C   0  0  0  0  0  0  0  0  0
   -1.9533   -0.1592    0.0000 C   0  0  0  0  0  0  0  0  0
   -1.2388   -0.5717    0.0000 C   0  0  0  0  0  0  0  0  0
   -0.5243   -0.1592    0.0000 C   0  0  0  0  0  0  0  0  0
   -2.6678    1.0783    0.0000 C   0  0  0  0  0  0  0  0  0
   -2.6678    1.9033    0.0000 C   0  0  0  0  0  0  0  0  0
   -1.9533    2.3158    0.0000 C   0  0  0  0  0  0  0  0  0
   -1.2388    1.9033    0.0000 C   0  0  0  0  0  0  0  0  0
  1  2  1  0  0  0  0
  1 13  1  0  0  0  0
  2  3  1  0  0  0  0
  2  7  1  0  0  0  0
  3  4  1  0  0  0  0
  4  5  1  0  0  0  0
  5  6  1  0  0  0  0
  7  8  4  0  0  0  0
  7 12  4  0  0  0  0
  8  9  4  0  0  0  0
  9 10  4  0  0  0  0
 10 11  4  0  0  0  0
 11 12  4  0  0  0  0
 13 14  4  0  0  0  0
 13 18  4  0  0  0  0
 14 15  4  0  0  0  0
 14 22  4  0  0  0  0
 15 16  4  0  0  0  0
 15 19  4  0  0  0  0
 16 17  4  0  0  0  0
 17 18  4  0  0  0  0
 19 20  4  0  0  0  0
 20 21  4  0  0  0  0
 21 22  4  0  0  0  0
M  END
>  <Name_Molregno>
230063

>  <Norepinephrine transporter>
7.7

$$$$
230125
  Marvin  02231216192D 0   1.00000     0.00000     0

 23 25  0  0  1  0  0  0  0  0999 V2000
    0.1826    1.0689    0.0000 O   0  0  0  0  0  0  0  0  0
    0.8971    0.6564    0.0000 C   0  0  0  0  0  0  0  0  0
    1.6115    1.0689    0.0000 C   0  0  0  0  0  0  0  0  0
    2.3260    0.6564    0.0000 C   0  0  0  0  0  0  0  0  0
    3.0405    1.0689    0.0000 N   0  0  0  0  0  0  0  0  0
    3.7550    0.6564    0.0000 C   0  0  0  0  0  0  0  0  0
    0.8971   -0.1686    0.0000 C   0  0  0  0  0  0  0  0  0
    1.6115   -0.5811    0.0000 C   0  0  0  0  0  0  0  0  0
    1.6115   -1.4061    0.0000 C   0  0  0  0  0  0  0  0  0
    0.8971   -1.8186    0.0000 C   0  0  0  0  0  0  0  0  0
    0.1826   -1.4061    0.0000 C   0  0  0  0  0  0  0  0  0
    0.1826   -0.5811    0.0000 C   0  0  0  0  0  0  0  0  0
    2.3260   -1.8186    0.0000 C   0  0  0  0  0  0  0  0  0
   -0.5319    0.6564    0.0000 C   0  0  0  0  0  0  0  0  0
   -1.2463    1.0689    0.0000 C   0  0  0  0  0  0  0  0  0
   -1.9608    0.6564    0.0000 C   0  0  0  0  0  0  0  0  0
   -1.9608   -0.1686    0.0000 C   0  0  0  0  0  0  0  0  0
   -1.2463   -0.5811    0.0000 C   0  0  0  0  0  0  0  0  0
   -0.5319   -0.1686    0.0000 C   0  0  0  0  0  0  0  0  0
   -2.6753    1.0689    0.0000 C   0  0  0  0  0  0  0  0  0
   -2.6753    1.8939    0.0000 C   0  0  0  0  0  0  0  0  0
   -1.9608    2.3064    0.0000 C   0  0  0  0  0  0  0  0  0
   -1.2463    1.8939    0.0000 C   0  0  0  0  0  0  0  0  0
  1  2  1  0  0  0  0
  1 14  1  0  0  0  0
  2  3  1  0  0  0  0
  2  7  1  0  0  0  0
  3  4  1  0  0  0  0
  4  5  1  0  0  0  0
  5  6  1  0  0  0  0
  7  8  4  0  0  0  0
  7 12  4  0  0  0  0
  8  9  4  0  0  0  0
  9 10  4  0  0  0  0
  9 13  1  0  0  0  0
 10 11  4  0  0  0  0
 11 12  4  0  0  0  0
 14 15  4  0  0  0  0
 14 19  4  0  0  0  0
 15 16  4  0  0  0  0
 15 23  4  0  0  0  0
 16 17  4  0  0  0  0
 16 20  4  0  0  0  0
 17 18  4  0  0  0  0
 18 19  4  0  0  0  0
 20 21  4  0  0  0  0
 21 22  4  0  0  0  0
 22 23  4  0  0  0  0
M  END
>  <Name_Molregno>
230125

>  <Norepinephrine transporter>
7.4

$$$$
230159
  Marvin  02231216192D 0   1.00000     0.00000     0

 23 25  0  0  1  0  0  0  0  0999 V2000
   -0.0925    0.3276    0.0000 O   0  0  0  0  0  0  0  0  0
    0.3200    1.0421    0.0000 C   0  0  0  0  0  0  0  0  0
    1.1450    1.0421    0.0000 C   0  0  0  0  0  0  0  0  0
    1.5575    0.3276    0.0000 C   0  0  0  0  0  0  0  0  0
    2.3825    0.3276    0.0000 N   0  0  0  0  0  0  0  0  0
    2.7950   -0.3869    0.0000 C   0  0  0  0  0  0  0  0  0
   -0.0925    1.7566    0.0000 C   0  0  0  0  0  0  0  0  0
   -0.9175    1.7566    0.0000 C   0  0  0  0  0  0  0  0  0
   -1.3300    2.4710    0.0000 C   0  0  0  0  0  0  0  0  0
   -0.9175    3.1855    0.0000 C   0  0  0  0  0  0  0  0  0
   -0.0925    3.1855    0.0000 C   0  0  0  0  0  0  0  0  0
    0.3200    2.4710    0.0000 C   0  0  0  0  0  0  0  0  0
   -1.3300    3.9000    0.0000 C   0  0  0  0  0  0  0  0  0
    0.3200   -0.3869    0.0000 C   0  0  0  0  0  0  0  0  0
   -0.0925   -1.1013    0.0000 C   0  0  0  0  0  0  0  0  0
    0.3200   -1.8158    0.0000 C   0  0  0  0  0  0  0  0  0
    1.1450   -1.8158    0.0000 C   0  0  0  0  0  0  0  0  0
    1.5575   -1.1013    0.0000 C   0  0  0  0  0  0  0  0  0
    1.1450   -0.3869    0.0000 C   0  0  0  0  0  0  0  0  0
   -0.0925   -2.5303    0.0000 C   0  0  0  0  0  0  0  0  0
   -0.9175   -2.5303    0.0000 C   0  0  0  0  0  0  0  0  0
   -1.3300   -1.8158    0.0000 C   0  0  0  0  0  0  0  0  0
   -0.9175   -1.1013    0.0000 C   0  0  0  0  0  0  0  0  0
  1  2  1  0  0  0  0
  1 14  1  0  0  0  0
  2  3  1  0  0  0  0
  2  7  1  0  0  0  0
  3  4  1  0  0  0  0
  4  5  1  0  0  0  0
  5  6  1  0  0  0  0
  7  8  4  0  0  0  0
  7 12  4  0  0  0  0
  8  9  4  0  0  0  0
  9 10  4  0  0  0  0
 10 11  4  0  0  0  0
 10 13  1  0  0  0  0
 11 12  4  0  0  0  0
 14 15  4  0  0  0  0
 14 19  4  0  0  0  0
 15 16  4  0  0  0  0
 15 23  4  0  0  0  0
 16 17  4  0  0  0  0
 16 20  4  0  0  0  0
 17 18  4  0  0  0  0
 18 19  4  0  0  0  0
 20 21  4  0  0  0  0
 21 22  4  0  0  0  0
 22 23  4  0  0  0  0
M  END
>  <Name_Molregno>
230159

>  <Norepinephrine transporter>
7.44

$$$$
230160
  Marvin  02231216192D 0   1.00000     0.00000     0

 23 25  0  0  1  0  0  0  0  0999 V2000
    0.1202    0.4379    0.0000 O   0  0  0  0  0  0  0  0  0
    0.8347    0.0254    0.0000 C   0  0  0  0  0  0  0  0  0
    1.5492    0.4379    0.0000 C   0  0  0  0  0  0  0  0  0
    2.2637    0.0254    0.0000 C   0  0  0  0  0  0  0  0  0
    2.9781    0.4379    0.0000 N   0  0  0  0  0  0  0  0  0
    3.6926    0.0254    0.0000 C   0  0  0  0  0  0  0  0  0
    0.8347   -0.7996    0.0000 C   0  0  0  0  0  0  0  0  0
    0.1202   -1.2121    0.0000 C   0  0  0  0  0  0  0  0  0
    0.1202   -2.0371    0.0000 C   0  0  0  0  0  0  0  0  0
    0.8347   -2.4496    0.0000 C   0  0  0  0  0  0  0  0  0
    1.5492   -2.0371    0.0000 C   0  0  0  0  0  0  0  0  0
    1.5492   -1.2121    0.0000 C   0  0  0  0  0  0  0  0  0
    2.2637   -0.7996    0.0000 C   0  0  0  0  0  0  0  0  0
   -0.5942    0.0254    0.0000 C   0  0  0  0  0  0  0  0  0
   -1.3087    0.4379    0.0000 C   0  0  0  0  0  0  0  0  0
   -2.0232    0.0254    0.0000 C   0  0  0  0  0  0  0  0  0
   -2.0232   -0.7996    0.0000 C   0  0  0  0  0  0  0  0  0
   -1.3087   -1.2121    0.0000 C   0  0  0  0  0  0  0  0  0
   -0.5942   -0.7996    0.0000 C   0  0  0  0  0  0  0  0  0
   -2.7376    0.4379    0.0000 C   0  0  0  0  0  0  0  0  0
   -2.7376    1.2629    0.0000 C   0  0  0  0  0  0  0  0  0
   -2.0232    1.6754    0.0000 C   0  0  0  0  0  0  0  0  0
   -1.3087    1.2629    0.0000 C   0  0  0  0  0  0  0  0  0
  1  2  1  0  0  0  0
  1 14  1  0  0  0  0
  2  3  1  0  0  0  0
  2  7  1  0  0  0  0
  3  4  1  0  0  0  0
  4  5  1  0  0  0  0
  5  6  1  0  0  0  0
  7  8  4  0  0  0  0
  7 12  4  0  0  0  0
  8  9  4  0  0  0  0
  9 10  4  0  0  0  0
 10 11  4  0  0  0  0
 11 12  4  0  0  0  0
 12 13  1  0  0  0  0
 14 15  4  0  0  0  0
 14 19  4  0  0  0  0
 15 16  4  0  0  0  0
 15 23  4  0  0  0  0
 16 17  4  0  0  0  0
 16 20  4  0  0  0  0
 17 18  4  0  0  0  0
 18 19  4  0  0  0  0
 20 21  4  0  0  0  0
 21 22  4  0  0  0  0
 22 23  4  0  0  0  0
M  END
>  <Name_Molregno>
230160

>  <Norepinephrine transporter>
6.96

$$$$
230179
  Marvin  02231216192D 0   1.00000     0.00000     0

 21 23  0  0  1  0  0  0  0  0999 V2000
    1.8607    2.5785    0.0000 S   0  0  0  0  0  0  0  0  0
    2.1156    3.3632    0.0000 C   0  0  0  0  0  0  0  0  0
    2.9406    3.3632    0.0000 C   0  0  0  0  0  0  0  0  0
    3.1956    2.5785    0.0000 N   0  0  0  0  0  0  0  0  0
    2.5281    2.0936    0.0000 C   0  0  0  0  0  0  0  0  0
    2.5281    1.2686    0.0000 C   0  0  0  0  0  0  0  0  0
    1.8136    0.8561    0.0000 O   0  0  0  0  0  0  0  0  0
    1.8136    0.0311    0.0000 C   0  0  0  0  0  0  0  0  0
    1.0992   -0.3814    0.0000 C   0  0  0  0  0  0  0  0  0
    1.0992   -1.2064    0.0000 C   0  0  0  0  0  0  0  0  0
    1.8136   -1.6189    0.0000 C   0  0  0  0  0  0  0  0  0
    2.5281   -1.2064    0.0000 C   0  0  0  0  0  0  0  0  0
    2.5281   -0.3814    0.0000 C   0  0  0  0  0  0  0  0  0
    0.3847   -1.6189    0.0000 C   0  0  0  0  0  0  0  0  0
   -0.3298   -1.2064    0.0000 C   0  0  0  0  0  0  0  0  0
   -0.3298   -0.3814    0.0000 C   0  0  0  0  0  0  0  0  0
    0.3847    0.0311    0.0000 C   0  0  0  0  0  0  0  0  0
    3.2426    0.8561    0.0000 C   0  0  0  0  0  0  0  0  0
    3.9571    1.2686    0.0000 C   0  0  0  0  0  0  0  0  0
    4.6715    0.8561    0.0000 N   0  0  0  0  0  0  0  0  0
    4.6715    0.0311    0.0000 C   0  0  0  0  0  0  0  0  0
  1  2  4  0  0  0  0
  1  5  4  0  0  0  0
  2  3  4  0  0  0  0
  3  4  4  0  0  0  0
  4  5  4  0  0  0  0
  5  6  1  0  0  0  0
  6  7  1  0  0  0  0
  6 18  1  0  0  0  0
  7  8  1  0  0  0  0
  8  9  4  0  0  0  0
  8 13  4  0  0  0  0
  9 10  4  0  0  0  0
  9 17  4  0  0  0  0
 10 11  4  0  0  0  0
 10 14  4  0  0  0  0
 11 12  4  0  0  0  0
 12 13  4  0  0  0  0
 14 15  4  0  0  0  0
 15 16  4  0  0  0  0
 16 17  4  0  0  0  0
 18 19  1  0  0  0  0
 19 20  1  0  0  0  0
 20 21  1  0  0  0  0
M  END
>  <Name_Molregno>
230179

>  <Norepinephrine transporter>
7.26

$$$$
230221
  Marvin  02231216192D 0   1.00000     0.00000     0

 21 23  0  0  1  0  0  0  0  0999 V2000
    1.8607    2.5785    0.0000 O   0  0  0  0  0  0  0  0  0
    2.1156    3.3632    0.0000 C   0  0  0  0  0  0  0  0  0
    2.9406    3.3632    0.0000 C   0  0  0  0  0  0  0  0  0
    3.1956    2.5785    0.0000 C   0  0  0  0  0  0  0  0  0
    2.5281    2.0936    0.0000 C   0  0  0  0  0  0  0  0  0
    2.5281    1.2686    0.0000 C   0  0  0  0  0  0  0  0  0
    1.8136    0.8561    0.0000 O   0  0  0  0  0  0  0  0  0
    1.8136    0.0311    0.0000 C   0  0  0  0  0  0  0  0  0
    1.0992   -0.3814    0.0000 C   0  0  0  0  0  0  0  0  0
    1.0992   -1.2064    0.0000 C   0  0  0  0  0  0  0  0  0
    1.8136   -1.6189    0.0000 C   0  0  0  0  0  0  0  0  0
    2.5281   -1.2064    0.0000 C   0  0  0  0  0  0  0  0  0
    2.5281   -0.3814    0.0000 C   0  0  0  0  0  0  0  0  0
    0.3847   -1.6189    0.0000 C   0  0  0  0  0  0  0  0  0
   -0.3298   -1.2064    0.0000 C   0  0  0  0  0  0  0  0  0
   -0.3298   -0.3814    0.0000 C   0  0  0  0  0  0  0  0  0
    0.3847    0.0311    0.0000 C   0  0  0  0  0  0  0  0  0
    3.2426    0.8561    0.0000 C   0  0  0  0  0  0  0  0  0
    3.9571    1.2686    0.0000 C   0  0  0  0  0  0  0  0  0
    4.6715    0.8561    0.0000 N   0  0  0  0  0  0  0  0  0
    4.6715    0.0311    0.0000 C   0  0  0  0  0  0  0  0  0
  1  2  4  0  0  0  0
  1  5  4  0  0  0  0
  2  3  4  0  0  0  0
  3  4  4  0  0  0  0
  4  5  4  0  0  0  0
  5  6  1  0  0  0  0
  6  7  1  0  0  0  0
  6 18  1  0  0  0  0
  7  8  1  0  0  0  0
  8  9  4  0  0  0  0
  8 13  4  0  0  0  0
  9 10  4  0  0  0  0
  9 17  4  0  0  0  0
 10 11  4  0  0  0  0
 10 14  4  0  0  0  0
 11 12  4  0  0  0  0
 12 13  4  0  0  0  0
 14 15  4  0  0  0  0
 15 16  4  0  0  0  0
 16 17  4  0  0  0  0
 18 19  1  0  0  0  0
 19 20  1  0  0  0  0
 20 21  1  0  0  0  0
M  END
>  <Name_Molregno>
230221

>  <Norepinephrine transporter>
7.7

$$$$
230248
  Marvin  02231216192D 0   1.00000     0.00000     0

 26 28  0  0  1  0  0  0  0  0999 V2000
   -0.9741    2.2095    0.0000 F   0  0  0  0  0  0  0  0  0
   -1.3866    1.4950    0.0000 C   0  0  0  0  0  0  0  0  0
   -2.1011    1.9075    0.0000 F   0  0  0  0  0  0  0  0  0
   -0.6722    1.0825    0.0000 F   0  0  0  0  0  0  0  0  0
   -1.7991    0.7805    0.0000 C   0  0  0  0  0  0  0  0  0
   -1.3866    0.0661    0.0000 C   0  0  0  0  0  0  0  0  0
   -1.7991   -0.6484    0.0000 C   0  0  0  0  0  0  0  0  0
   -2.6241   -0.6484    0.0000 C   0  0  0  0  0  0  0  0  0
   -3.0366    0.0661    0.0000 C   0  0  0  0  0  0  0  0  0
   -2.6241    0.7805    0.0000 C   0  0  0  0  0  0  0  0  0
   -1.3866   -1.3629    0.0000 C   0  0  0  0  0  0  0  0  0
   -1.7991   -2.0773    0.0000 O   0  0  0  0  0  0  0  0  0
   -1.3866   -2.7918    0.0000 C   0  0  0  0  0  0  0  0  0
   -1.7991   -3.5063    0.0000 C   0  0  0  0  0  0  0  0  0
   -1.3866   -4.2208    0.0000 C   0  0  0  0  0  0  0  0  0
   -0.5616   -4.2208    0.0000 C   0  0  0  0  0  0  0  0  0
   -0.1491   -3.5063    0.0000 C   0  0  0  0  0  0  0  0  0
   -0.5616   -2.7918    0.0000 C   0  0  0  0  0  0  0  0  0
   -1.7991   -4.9352    0.0000 C   0  0  0  0  0  0  0  0  0
   -2.6241   -4.9352    0.0000 C   0  0  0  0  0  0  0  0  0
   -3.0366   -4.2208    0.0000 C   0  0  0  0  0  0  0  0  0
   -2.6241   -3.5063    0.0000 C   0  0  0  0  0  0  0  0  0
   -0.5616   -1.3629    0.0000 C   0  0  0  0  0  0  0  0  0
   -0.1491   -2.0773    0.0000 C   0  0  0  0  0  0  0  0  0
    0.6759   -2.0773    0.0000 N   0  0  0  0  0  0  0  0  0
    1.0884   -2.7918    0.0000 C   0  0  0  0  0  0  0  0  0
  1  2  1  0  0  0  0
  2  3  1  0  0  0  0
  2  4  1  0  0  0  0
  2  5  1  0  0  0  0
  5  6  4  0  0  0  0
  5 10  4  0  0  0  0
  6  7  4  0  0  0  0
  7  8  4  0  0  0  0
  7 11  1  0  0  0  0
  8  9  4  0  0  0  0
  9 10  4  0  0  0  0
 11 12  1  0  0  0  0
 11 23  1  0  0  0  0
 12 13  1  0  0  0  0
 13 14  4  0  0  0  0
 13 18  4  0  0  0  0
 14 15  4  0  0  0  0
 14 22  4  0  0  0  0
 15 16  4  0  0  0  0
 15 19  4  0  0  0  0
 16 17  4  0  0  0  0
 17 18  4  0  0  0  0
 19 20  4  0  0  0  0
 20 21  4  0  0  0  0
 21 22  4  0  0  0  0
 23 24  1  0  0  0  0
 24 25  1  0  0  0  0
 25 26  1  0  0  0  0
M  END
>  <Name_Molregno>
230248

>  <Norepinephrine transporter>
7.15

$$$$
230502
  Marvin  02231216192D 0   1.00000     0.00000     0

 23 25  0  0  1  0  0  0  0  0999 V2000
    0.5745    0.6680    0.0000 Br  0  0  0  0  0  0  0  0  0
    0.1620   -0.0465    0.0000 C   0  0  0  0  0  0  0  0  0
    0.5745   -0.7610    0.0000 C   0  0  0  0  0  0  0  0  0
    0.1620   -1.4755    0.0000 C   0  0  0  0  0  0  0  0  0
   -0.6630   -1.4755    0.0000 C   0  0  0  0  0  0  0  0  0
   -1.0755   -0.7610    0.0000 C   0  0  0  0  0  0  0  0  0
   -0.6630   -0.0465    0.0000 C   0  0  0  0  0  0  0  0  0
    0.5745   -2.1899    0.0000 C   0  0  0  0  0  0  0  0  0
    0.1620   -2.9044    0.0000 O   0  0  0  0  0  0  0  0  0
    0.5745   -3.6189    0.0000 C   0  0  0  0  0  0  0  0  0
    0.1620   -4.3333    0.0000 C   0  0  0  0  0  0  0  0  0
    0.5745   -5.0478    0.0000 C   0  0  0  0  0  0  0  0  0
    1.3995   -5.0478    0.0000 C   0  0  0  0  0  0  0  0  0
    1.8120   -4.3333    0.0000 C   0  0  0  0  0  0  0  0  0
    1.3995   -3.6189    0.0000 C   0  0  0  0  0  0  0  0  0
    0.1620   -5.7623    0.0000 C   0  0  0  0  0  0  0  0  0
   -0.6630   -5.7623    0.0000 C   0  0  0  0  0  0  0  0  0
   -1.0755   -5.0478    0.0000 C   0  0  0  0  0  0  0  0  0
   -0.6630   -4.3333    0.0000 C   0  0  0  0  0  0  0  0  0
    1.3995   -2.1899    0.0000 C   0  0  0  0  0  0  0  0  0
    1.8120   -2.9044    0.0000 C   0  0  0  0  0  0  0  0  0
    2.6370   -2.9044    0.0000 N   0  0  0  0  0  0  0  0  0
    3.0495   -3.6189    0.0000 C   0  0  0  0  0  0  0  0  0
  1  2  1  0  0  0  0
  2  3  4  0  0  0  0
  2  7  4  0  0  0  0
  3  4  4  0  0  0  0
  4  5  4  0  0  0  0
  4  8  1  0  0  0  0
  5  6  4  0  0  0  0
  6  7  4  0  0  0  0
  8  9  1  0  0  0  0
  8 20  1  0  0  0  0
  9 10  1  0  0  0  0
 10 11  4  0  0  0  0
 10 15  4  0  0  0  0
 11 12  4  0  0  0  0
 11 19  4  0  0  0  0
 12 13  4  0  0  0  0
 12 16  4  0  0  0  0
 13 14  4  0  0  0  0
 14 15  4  0  0  0  0
 16 17  4  0  0  0  0
 17 18  4  0  0  0  0
 18 19  4  0  0  0  0
 20 21  1  0  0  0  0
 21 22  1  0  0  0  0
 22 23  1  0  0  0  0
M  END
>  <Name_Molregno>
230502

>  <Norepinephrine transporter>
7.17

$$$$
230589
  Marvin  02231216192D 0   1.00000     0.00000     0

 21 23  0  0  1  0  0  0  0  0999 V2000
    1.8607    2.5785    0.0000 S   0  0  0  0  0  0  0  0  0
    2.1156    3.3632    0.0000 C   0  0  0  0  0  0  0  0  0
    2.9406    3.3632    0.0000 C   0  0  0  0  0  0  0  0  0
    3.1956    2.5785    0.0000 C   0  0  0  0  0  0  0  0  0
    2.5281    2.0936    0.0000 C   0  0  0  0  0  0  0  0  0
    2.5281    1.2686    0.0000 C   0  0  0  0  0  0  0  0  0
    1.8136    0.8561    0.0000 O   0  0  0  0  0  0  0  0  0
    1.8136    0.0311    0.0000 C   0  0  0  0  0  0  0  0  0
    1.0992   -0.3814    0.0000 C   0  0  0  0  0  0  0  0  0
    1.0992   -1.2064    0.0000 C   0  0  0  0  0  0  0  0  0
    1.8136   -1.6189    0.0000 C   0  0  0  0  0  0  0  0  0
    2.5281   -1.2064    0.0000 C   0  0  0  0  0  0  0  0  0
    2.5281   -0.3814    0.0000 C   0  0  0  0  0  0  0  0  0
    0.3847   -1.6189    0.0000 C   0  0  0  0  0  0  0  0  0
   -0.3298   -1.2064    0.0000 C   0  0  0  0  0  0  0  0  0
   -0.3298   -0.3814    0.0000 C   0  0  0  0  0  0  0  0  0
    0.3847    0.0311    0.0000 C   0  0  0  0  0  0  0  0  0
    3.2426    0.8561    0.0000 C   0  0  0  0  0  0  0  0  0
    3.9571    1.2686    0.0000 C   0  0  0  0  0  0  0  0  0
    4.6715    0.8561    0.0000 N   0  0  0  0  0  0  0  0  0
    4.6715    0.0311    0.0000 C   0  0  0  0  0  0  0  0  0
  1  2  4  0  0  0  0
  1  5  4  0  0  0  0
  2  3  4  0  0  0  0
  3  4  4  0  0  0  0
  4  5  4  0  0  0  0
  5  6  1  0  0  0  0
  6  7  1  0  0  0  0
  6 18  1  0  0  0  0
  7  8  1  0  0  0  0
  8  9  4  0  0  0  0
  8 13  4  0  0  0  0
  9 10  4  0  0  0  0
  9 17  4  0  0  0  0
 10 11  4  0  0  0  0
 10 14  4  0  0  0  0
 11 12  4  0  0  0  0
 12 13  4  0  0  0  0
 14 15  4  0  0  0  0
 15 16  4  0  0  0  0
 16 17  4  0  0  0  0
 18 19  1  0  0  0  0
 19 20  1  0  0  0  0
 20 21  1  0  0  0  0
M  END
>  <Name_Molregno>
230589

>  <5-HT1A>
5.3

>  <5-HT1B>
5.4

>  <5-HT1D>
5.52

>  <5-HT1E>
5.43

>  <5-HT2A>
6.3

>  <5-HT2C>
6.04

>  <5-HT6>
6.38

>  <5-HT7>
5.65

>  <Alpha-2A>
6

>  <DOPAMINE D2>
5

>  <Dopamine transporter>
6.24

>  <HISTAMINE H1>
5.64

>  <Muscarinic acetylcholine receptor M1>
6

>  <Muscarinic acetylcholine receptor M2>
6

>  <Norepinephrine transporter>
7.53

>  <Serotonin transporter>
8.48

$$$$
230590
  Marvin  02231216192D 0   1.00000     0.00000     0

 24 26  0  0  1  0  0  0  0  0999 V2000
   -0.0556    0.1983    0.0000 O   0  0  0  0  0  0  0  0  0
    0.3569    0.9128    0.0000 C   0  0  0  0  0  0  0  0  0
    1.1819    0.9128    0.0000 C   0  0  0  0  0  0  0  0  0
    1.5944    0.1983    0.0000 C   0  0  0  0  0  0  0  0  0
    2.4194    0.1983    0.0000 N   0  0  0  0  0  0  0  0  0
    2.8319   -0.5161    0.0000 C   0  0  0  0  0  0  0  0  0
   -0.0556    1.6273    0.0000 C   0  0  0  0  0  0  0  0  0
   -0.8806    1.6273    0.0000 C   0  0  0  0  0  0  0  0  0
   -1.2931    2.3418    0.0000 C   0  0  0  0  0  0  0  0  0
   -0.8806    3.0562    0.0000 C   0  0  0  0  0  0  0  0  0
   -1.2931    3.7707    0.0000 O   0  0  0  0  0  0  0  0  0
   -0.8806    4.4852    0.0000 C   0  0  0  0  0  0  0  0  0
   -0.0556    3.0562    0.0000 C   0  0  0  0  0  0  0  0  0
    0.3569    2.3418    0.0000 C   0  0  0  0  0  0  0  0  0
    0.3569   -0.5161    0.0000 C   0  0  0  0  0  0  0  0  0
   -0.0556   -1.2306    0.0000 C   0  0  0  0  0  0  0  0  0
    0.3569   -1.9451    0.0000 C   0  0  0  0  0  0  0  0  0
    1.1819   -1.9451    0.0000 C   0  0  0  0  0  0  0  0  0
    1.5944   -1.2306    0.0000 C   0  0  0  0  0  0  0  0  0
    1.1819   -0.5161    0.0000 C   0  0  0  0  0  0  0  0  0
   -0.0556   -2.6595    0.0000 C   0  0  0  0  0  0  0  0  0
   -0.8806   -2.6595    0.0000 C   0  0  0  0  0  0  0  0  0
   -1.2931   -1.9451    0.0000 C   0  0  0  0  0  0  0  0  0
   -0.8806   -1.2306    0.0000 C   0  0  0  0  0  0  0  0  0
  1  2  1  0  0  0  0
  1 15  1  0  0  0  0
  2  3  1  0  0  0  0
  2  7  1  0  0  0  0
  3  4  1  0  0  0  0
  4  5  1  0  0  0  0
  5  6  1  0  0  0  0
  7  8  4  0  0  0  0
  7 14  4  0  0  0  0
  8  9  4  0  0  0  0
  9 10  4  0  0  0  0
 10 11  1  0  0  0  0
 10 13  4  0  0  0  0
 11 12  1  0  0  0  0
 13 14  4  0  0  0  0
 15 16  4  0  0  0  0
 15 20  4  0  0  0  0
 16 17  4  0  0  0  0
 16 24  4  0  0  0  0
 17 18  4  0  0  0  0
 17 21  4  0  0  0  0
 18 19  4  0  0  0  0
 19 20  4  0  0  0  0
 21 22  4  0  0  0  0
 22 23  4  0  0  0  0
 23 24  4  0  0  0  0
M  END
>  <Name_Molregno>
230590

>  <Norepinephrine transporter>
7.13

$$$$
230591
  Marvin  02231216192D 0   1.00000     0.00000     0

 24 26  0  0  1  0  0  0  0  0999 V2000
    0.1075    0.1187    0.0000 O   0  0  0  0  0  0  0  0  0
    0.5200    0.8332    0.0000 C   0  0  0  0  0  0  0  0  0
    1.3450    0.8332    0.0000 C   0  0  0  0  0  0  0  0  0
    1.7575    0.1187    0.0000 C   0  0  0  0  0  0  0  0  0
    2.5825    0.1187    0.0000 N   0  0  0  0  0  0  0  0  0
    2.9950   -0.5958    0.0000 C   0  0  0  0  0  0  0  0  0
    0.1075    1.5476    0.0000 C   0  0  0  0  0  0  0  0  0
   -0.7175    1.5476    0.0000 C   0  0  0  0  0  0  0  0  0
   -1.1300    2.2621    0.0000 C   0  0  0  0  0  0  0  0  0
   -1.9550    2.2621    0.0000 O   0  0  0  0  0  0  0  0  0
   -2.3675    2.9766    0.0000 C   0  0  0  0  0  0  0  0  0
   -0.7175    2.9766    0.0000 C   0  0  0  0  0  0  0  0  0
    0.1075    2.9766    0.0000 C   0  0  0  0  0  0  0  0  0
    0.5200    2.2621    0.0000 C   0  0  0  0  0  0  0  0  0
    0.5200   -0.5958    0.0000 C   0  0  0  0  0  0  0  0  0
    0.1075   -1.3103    0.0000 C   0  0  0  0  0  0  0  0  0
    0.5200   -2.0247    0.0000 C   0  0  0  0  0  0  0  0  0
    1.3450   -2.0247    0.0000 C   0  0  0  0  0  0  0  0  0
    1.7575   -1.3103    0.0000 C   0  0  0  0  0  0  0  0  0
    1.3450   -0.5958    0.0000 C   0  0  0  0  0  0  0  0  0
    0.1075   -2.7392    0.0000 C   0  0  0  0  0  0  0  0  0
   -0.7175   -2.7392    0.0000 C   0  0  0  0  0  0  0  0  0
   -1.1300   -2.0247    0.0000 C   0  0  0  0  0  0  0  0  0
   -0.7175   -1.3103    0.0000 C   0  0  0  0  0  0  0  0  0
  1  2  1  0  0  0  0
  1 15  1  0  0  0  0
  2  3  1  0  0  0  0
  2  7  1  0  0  0  0
  3  4  1  0  0  0  0
  4  5  1  0  0  0  0
  5  6  1  0  0  0  0
  7  8  4  0  0  0  0
  7 14  4  0  0  0  0
  8  9  4  0  0  0  0
  9 10  1  0  0  0  0
  9 12  4  0  0  0  0
 10 11  1  0  0  0  0
 12 13  4  0  0  0  0
 13 14  4  0  0  0  0
 15 16  4  0  0  0  0
 15 20  4  0  0  0  0
 16 17  4  0  0  0  0
 16 24  4  0  0  0  0
 17 18  4  0  0  0  0
 17 21  4  0  0  0  0
 18 19  4  0  0  0  0
 19 20  4  0  0  0  0
 21 22  4  0  0  0  0
 22 23  4  0  0  0  0
 23 24  4  0  0  0  0
M  END
>  <Name_Molregno>
230591

>  <Norepinephrine transporter>
7.09

$$$$
230658
  Marvin  02231216192D 0   1.00000     0.00000     0

 23 25  0  0  1  0  0  0  0  0999 V2000
    0.5305    0.6643    0.0000 Cl  0  0  0  0  0  0  0  0  0
    0.9430   -0.0502    0.0000 C   0  0  0  0  0  0  0  0  0
    1.7680   -0.0502    0.0000 C   0  0  0  0  0  0  0  0  0
    2.1805   -0.7647    0.0000 C   0  0  0  0  0  0  0  0  0
    1.7680   -1.4791    0.0000 C   0  0  0  0  0  0  0  0  0
    0.9430   -1.4791    0.0000 C   0  0  0  0  0  0  0  0  0
    0.5305   -0.7647    0.0000 C   0  0  0  0  0  0  0  0  0
    2.1805   -2.1936    0.0000 C   0  0  0  0  0  0  0  0  0
    1.7680   -2.9081    0.0000 O   0  0  0  0  0  0  0  0  0
    2.1805   -3.6225    0.0000 C   0  0  0  0  0  0  0  0  0
    1.7680   -4.3370    0.0000 C   0  0  0  0  0  0  0  0  0
    2.1805   -5.0515    0.0000 C   0  0  0  0  0  0  0  0  0
    3.0055   -5.0515    0.0000 C   0  0  0  0  0  0  0  0  0
    3.4180   -4.3370    0.0000 C   0  0  0  0  0  0  0  0  0
    3.0055   -3.6225    0.0000 C   0  0  0  0  0  0  0  0  0
    1.7680   -5.7660    0.0000 C   0  0  0  0  0  0  0  0  0
    0.9430   -5.7660    0.0000 C   0  0  0  0  0  0  0  0  0
    0.5305   -5.0515    0.0000 C   0  0  0  0  0  0  0  0  0
    0.9430   -4.3370    0.0000 C   0  0  0  0  0  0  0  0  0
    3.0055   -2.1936    0.0000 C   0  0  0  0  0  0  0  0  0
    3.4180   -2.9081    0.0000 C   0  0  0  0  0  0  0  0  0
    4.2430   -2.9081    0.0000 N   0  0  0  0  0  0  0  0  0
    4.6555   -3.6225    0.0000 C   0  0  0  0  0  0  0  0  0
  1  2  1  0  0  0  0
  2  3  4  0  0  0  0
  2  7  4  0  0  0  0
  3  4  4  0  0  0  0
  4  5  4  0  0  0  0
  5  6  4  0  0  0  0
  5  8  1  0  0  0  0
  6  7  4  0  0  0  0
  8  9  1  0  0  0  0
  8 20  1  0  0  0  0
  9 10  1  0  0  0  0
 10 11  4  0  0  0  0
 10 15  4  0  0  0  0
 11 12  4  0  0  0  0
 11 19  4  0  0  0  0
 12 13  4  0  0  0  0
 12 16  4  0  0  0  0
 13 14  4  0  0  0  0
 14 15  4  0  0  0  0
 16 17  4  0  0  0  0
 17 18  4  0  0  0  0
 18 19  4  0  0  0  0
 20 21  1  0  0  0  0
 21 22  1  0  0  0  0
 22 23  1  0  0  0  0
M  END
>  <Name_Molregno>
230658

>  <Norepinephrine transporter>
7.11

$$$$
230992
  Marvin  02231216192D 0   1.00000     0.00000     0

 23 25  0  0  1  0  0  0  0  0999 V2000
    0.5305    0.6643    0.0000 Br  0  0  0  0  0  0  0  0  0
    0.9430   -0.0502    0.0000 C   0  0  0  0  0  0  0  0  0
    1.7680   -0.0502    0.0000 C   0  0  0  0  0  0  0  0  0
    2.1805   -0.7647    0.0000 C   0  0  0  0  0  0  0  0  0
    1.7680   -1.4791    0.0000 C   0  0  0  0  0  0  0  0  0
    0.9430   -1.4791    0.0000 C   0  0  0  0  0  0  0  0  0
    0.5305   -0.7647    0.0000 C   0  0  0  0  0  0  0  0  0
    2.1805   -2.1936    0.0000 C   0  0  0  0  0  0  0  0  0
    1.7680   -2.9081    0.0000 O   0  0  0  0  0  0  0  0  0
    2.1805   -3.6225    0.0000 C   0  0  0  0  0  0  0  0  0
    1.7680   -4.3370    0.0000 C   0  0  0  0  0  0  0  0  0
    2.1805   -5.0515    0.0000 C   0  0  0  0  0  0  0  0  0
    3.0055   -5.0515    0.0000 C   0  0  0  0  0  0  0  0  0
    3.4180   -4.3370    0.0000 C   0  0  0  0  0  0  0  0  0
    3.0055   -3.6225    0.0000 C   0  0  0  0  0  0  0  0  0
    1.7680   -5.7660    0.0000 C   0  0  0  0  0  0  0  0  0
    0.9430   -5.7660    0.0000 C   0  0  0  0  0  0  0  0  0
    0.5305   -5.0515    0.0000 C   0  0  0  0  0  0  0  0  0
    0.9430   -4.3370    0.0000 C   0  0  0  0  0  0  0  0  0
    3.0055   -2.1936    0.0000 C   0  0  0  0  0  0  0  0  0
    3.4180   -2.9081    0.0000 C   0  0  0  0  0  0  0  0  0
    4.2430   -2.9081    0.0000 N   0  0  0  0  0  0  0  0  0
    4.6555   -3.6225    0.0000 C   0  0  0  0  0  0  0  0  0
  1  2  1  0  0  0  0
  2  3  4  0  0  0  0
  2  7  4  0  0  0  0
  3  4  4  0  0  0  0
  4  5  4  0  0  0  0
  5  6  4  0  0  0  0
  5  8  1  0  0  0  0
  6  7  4  0  0  0  0
  8  9  1  0  0  0  0
  8 20  1  0  0  0  0
  9 10  1  0  0  0  0
 10 11  4  0  0  0  0
 10 15  4  0  0  0  0
 11 12  4  0  0  0  0
 11 19  4  0  0  0  0
 12 13  4  0  0  0  0
 12 16  4  0  0  0  0
 13 14  4  0  0  0  0
 14 15  4  0  0  0  0
 16 17  4  0  0  0  0
 17 18  4  0  0  0  0
 18 19  4  0  0  0  0
 20 21  1  0  0  0  0
 21 22  1  0  0  0  0
 22 23  1  0  0  0  0
M  END
>  <Name_Molregno>
230992

>  <Norepinephrine transporter>
6.8

$$$$
230994
  Marvin  02231216192D 0   1.00000     0.00000     0

 23 25  0  0  1  0  0  0  0  0999 V2000
    0.5305    0.6643    0.0000 F   0  0  0  0  0  0  0  0  0
    0.9430   -0.0502    0.0000 C   0  0  0  0  0  0  0  0  0
    1.7680   -0.0502    0.0000 C   0  0  0  0  0  0  0  0  0
    2.1805   -0.7647    0.0000 C   0  0  0  0  0  0  0  0  0
    1.7680   -1.4791    0.0000 C   0  0  0  0  0  0  0  0  0
    0.9430   -1.4791    0.0000 C   0  0  0  0  0  0  0  0  0
    0.5305   -0.7647    0.0000 C   0  0  0  0  0  0  0  0  0
    2.1805   -2.1936    0.0000 C   0  0  0  0  0  0  0  0  0
    1.7680   -2.9081    0.0000 O   0  0  0  0  0  0  0  0  0
    2.1805   -3.6225    0.0000 C   0  0  0  0  0  0  0  0  0
    1.7680   -4.3370    0.0000 C   0  0  0  0  0  0  0  0  0
    2.1805   -5.0515    0.0000 C   0  0  0  0  0  0  0  0  0
    3.0055   -5.0515    0.0000 C   0  0  0  0  0  0  0  0  0
    3.4180   -4.3370    0.0000 C   0  0  0  0  0  0  0  0  0
    3.0055   -3.6225    0.0000 C   0  0  0  0  0  0  0  0  0
    1.7680   -5.7660    0.0000 C   0  0  0  0  0  0  0  0  0
    0.9430   -5.7660    0.0000 C   0  0  0  0  0  0  0  0  0
    0.5305   -5.0515    0.0000 C   0  0  0  0  0  0  0  0  0
    0.9430   -4.3370    0.0000 C   0  0  0  0  0  0  0  0  0
    3.0055   -2.1936    0.0000 C   0  0  0  0  0  0  0  0  0
    3.4180   -2.9081    0.0000 C   0  0  0  0  0  0  0  0  0
    4.2430   -2.9081    0.0000 N   0  0  0  0  0  0  0  0  0
    4.6555   -3.6225    0.0000 C   0  0  0  0  0  0  0  0  0
  1  2  1  0  0  0  0
  2  3  4  0  0  0  0
  2  7  4  0  0  0  0
  3  4  4  0  0  0  0
  4  5  4  0  0  0  0
  5  6  4  0  0  0  0
  5  8  1  0  0  0  0
  6  7  4  0  0  0  0
  8  9  1  0  0  0  0
  8 20  1  0  0  0  0
  9 10  1  0  0  0  0
 10 11  4  0  0  0  0
 10 15  4  0  0  0  0
 11 12  4  0  0  0  0
 11 19  4  0  0  0  0
 12 13  4  0  0  0  0
 12 16  4  0  0  0  0
 13 14  4  0  0  0  0
 14 15  4  0  0  0  0
 16 17  4  0  0  0  0
 17 18  4  0  0  0  0
 18 19  4  0  0  0  0
 20 21  1  0  0  0  0
 21 22  1  0  0  0  0
 22 23  1  0  0  0  0
M  END
>  <Name_Molregno>
230994

>  <Norepinephrine transporter>
7.38

$$$$
231029
  Marvin  02231216192D 0   1.00000     0.00000     0

 21 23  0  0  1  0  0  0  0  0999 V2000
   -1.7039    4.0574    0.0000 S   0  0  0  0  0  0  0  0  0
   -1.4489    3.2728    0.0000 C   0  0  0  0  0  0  0  0  0
   -2.1164    2.7878    0.0000 C   0  0  0  0  0  0  0  0  0
   -2.7838    3.2728    0.0000 C   0  0  0  0  0  0  0  0  0
   -2.5289    4.0574    0.0000 C   0  0  0  0  0  0  0  0  0
   -2.1164    1.9628    0.0000 C   0  0  0  0  0  0  0  0  0
   -2.8308    1.5503    0.0000 O   0  0  0  0  0  0  0  0  0
   -2.8308    0.7253    0.0000 C   0  0  0  0  0  0  0  0  0
   -3.5453    0.3128    0.0000 C   0  0  0  0  0  0  0  0  0
   -3.5453   -0.5122    0.0000 C   0  0  0  0  0  0  0  0  0
   -2.8308   -0.9247    0.0000 C   0  0  0  0  0  0  0  0  0
   -2.1164   -0.5122    0.0000 C   0  0  0  0  0  0  0  0  0
   -2.1164    0.3128    0.0000 C   0  0  0  0  0  0  0  0  0
   -4.2598   -0.9247    0.0000 C   0  0  0  0  0  0  0  0  0
   -4.9743   -0.5122    0.0000 C   0  0  0  0  0  0  0  0  0
   -4.9743    0.3128    0.0000 C   0  0  0  0  0  0  0  0  0
   -4.2598    0.7253    0.0000 C   0  0  0  0  0  0  0  0  0
   -1.4019    1.5503    0.0000 C   0  0  0  0  0  0  0  0  0
   -0.6874    1.9628    0.0000 C   0  0  0  0  0  0  0  0  0
    0.0270    1.5503    0.0000 N   0  0  0  0  0  0  0  0  0
    0.0270    0.7253    0.0000 C   0  0  0  0  0  0  0  0  0
  1  2  4  0  0  0  0
  1  5  4  0  0  0  0
  2  3  4  0  0  0  0
  3  4  4  0  0  0  0
  3  6  1  0  0  0  0
  4  5  4  0  0  0  0
  6  7  1  0  0  0  0
  6 18  1  0  0  0  0
  7  8  1  0  0  0  0
  8  9  4  0  0  0  0
  8 13  4  0  0  0  0
  9 10  4  0  0  0  0
  9 17  4  0  0  0  0
 10 11  4  0  0  0  0
 10 14  4  0  0  0  0
 11 12  4  0  0  0  0
 12 13  4  0  0  0  0
 14 15  4  0  0  0  0
 15 16  4  0  0  0  0
 16 17  4  0  0  0  0
 18 19  1  0  0  0  0
 19 20  1  0  0  0  0
 20 21  1  0  0  0  0
M  END
>  <Name_Molregno>
231029

>  <Norepinephrine transporter>
7.68

$$$$
237830
  Marvin  02231216192D 0   1.00000     0.00000     0

 20 21  0  0  0  0  0  0  0  0999 V2000
   -0.2180    0.0162    0.0000 S   0  0  0  0  0  0  0  0  0
   -0.2180   -0.8088    0.0000 C   0  0  0  0  0  0  0  0  0
    0.4965   -1.2213    0.0000 C   0  0  0  0  0  0  0  0  0
    0.4965   -2.0463    0.0000 C   0  0  0  0  0  0  0  0  0
   -0.2180   -2.4588    0.0000 C   0  0  0  0  0  0  0  0  0
   -0.9324   -2.0463    0.0000 C   0  0  0  0  0  0  0  0  0
   -0.9324   -1.2213    0.0000 C   0  0  0  0  0  0  0  0  0
   -1.6469   -0.8088    0.0000 C   0  0  0  0  0  0  0  0  0
   -2.3614   -1.2213    0.0000 N   0  0  0  0  0  0  0  0  0
   -3.0759   -0.8088    0.0000 C   0  0  0  0  0  0  0  0  0
   -2.3614   -2.0463    0.0000 C   0  0  0  0  0  0  0  0  0
    0.4965    0.4287    0.0000 C   0  0  0  0  0  0  0  0  0
    0.4965    1.2537    0.0000 C   0  0  0  0  0  0  0  0  0
    1.2110    1.6662    0.0000 C   0  0  0  0  0  0  0  0  0
    1.9254    1.2537    0.0000 C   0  0  0  0  0  0  0  0  0
    1.9254    0.4287    0.0000 C   0  0  0  0  0  0  0  0  0
    1.2110    0.0162    0.0000 C   0  0  0  0  0  0  0  0  0
    1.2110   -0.8088    0.0000 N   0  0  0  0  0  0  0  0  0
    2.6399    1.6662    0.0000 C   0  0  0  0  0  0  0  0  0
    2.6399    2.4912    0.0000 F   0  0  0  0  0  0  0  0  0
  1  2  1  0  0  0  0
  1 12  1  0  0  0  0
  2  3  4  0  0  0  0
  2  7  4  0  0  0  0
  3  4  4  0  0  0  0
  4  5  4  0  0  0  0
  5  6  4  0  0  0  0
  6  7  4  0  0  0  0
  7  8  1  0  0  0  0
  8  9  1  0  0  0  0
  9 10  1  0  0  0  0
  9 11  1  0  0  0  0
 12 13  4  0  0  0  0
 12 17  4  0  0  0  0
 13 14  4  0  0  0  0
 14 15  4  0  0  0  0
 15 16  4  0  0  0  0
 15 19  1  0  0  0  0
 16 17  4  0  0  0  0
 17 18  1  0  0  0  0
 19 20  1  0  0  0  0
M  END
>  <Name_Molregno>
237830

>  <Dopamine transporter>
5

>  <Norepinephrine transporter>
6.18

>  <Serotonin transporter>
8.98

$$$$
258615
  Marvin  02231216192D 0   1.00000     0.00000     0

 15 15  0  0  1  0  0  0  0  0999 V2000
    0.2143   -2.6013    0.0000 O   0  0  0  0  0  0  0  0  0
    0.2143   -1.7763    0.0000 C   0  0  0  0  0  0  0  0  0
    0.9288   -1.3638    0.0000 C   0  0  0  0  0  0  0  0  0
    1.6432   -1.7763    0.0000 N   0  0  0  0  0  0  0  0  0
    2.3577   -1.3638    0.0000 C   0  0  0  0  0  0  0  0  0
    3.0722   -0.9513    0.0000 C   0  0  0  0  0  0  0  0  0
    1.9452   -0.6493    0.0000 C   0  0  0  0  0  0  0  0  0
    2.7702   -2.0782    0.0000 C   0  0  0  0  0  0  0  0  0
    0.9288   -0.5388    0.0000 C   0  0  0  0  0  0  0  0  0
   -0.5002   -1.3638    0.0000 C   0  0  0  0  0  0  0  0  0
   -1.2146   -1.7763    0.0000 C   0  0  0  0  0  0  0  0  0
   -1.9291   -1.3637    0.0000 C   0  0  0  0  0  0  0  0  0
   -1.9291   -0.5387    0.0000 C   0  0  0  0  0  0  0  0  0
   -1.2146   -0.1262    0.0000 C   0  0  0  0  0  0  0  0  0
   -0.5002   -0.5387    0.0000 C   0  0  0  0  0  0  0  0  0
  1  2  1  0  0  0  0
  2  3  1  0  0  0  0
  2 10  1  0  0  0  0
  3  4  1  0  0  0  0
  3  9  1  0  0  0  0
  4  5  1  0  0  0  0
  5  6  1  0  0  0  0
  5  7  1  0  0  0  0
  5  8  1  0  0  0  0
 10 11  4  0  0  0  0
 10 15  4  0  0  0  0
 11 12  4  0  0  0  0
 12 13  4  0  0  0  0
 13 14  4  0  0  0  0
 14 15  4  0  0  0  0
M  END
>  <Name_Molregno>
258615

>  <Dopamine transporter>
5

>  <Norepinephrine transporter>
5

>  <Serotonin transporter>
5.4

$$$$
302743
  Marvin  02231216192D 0   1.00000     0.00000     0

 22 24  0  0  1  0  0  0  0  0999 V2000
    0.5786   -0.7079    0.0000 S   0  0  0  0  0  0  0  0  0
   -0.1359   -1.1204    0.0000 C   0  0  0  0  0  0  0  0  0
   -0.1359   -1.9454    0.0000 C   0  0  0  0  0  0  0  0  0
   -0.8504   -2.3579    0.0000 O   0  0  0  0  0  0  0  0  0
   -0.8504   -3.1829    0.0000 C   0  0  0  0  0  0  0  0  0
   -0.1359   -3.5954    0.0000 C   0  0  0  0  0  0  0  0  0
    0.5786   -3.1829    0.0000 N   0  0  0  0  0  0  0  0  0
    0.5786   -2.3579    0.0000 C   0  0  0  0  0  0  0  0  0
   -0.8504   -0.7079    0.0000 C   0  0  0  0  0  0  0  0  0
   -1.5649   -1.1204    0.0000 C   0  0  0  0  0  0  0  0  0
   -2.2793   -0.7079    0.0000 C   0  0  0  0  0  0  0  0  0
   -2.2793    0.1171    0.0000 C   0  0  0  0  0  0  0  0  0
   -1.5649    0.5296    0.0000 C   0  0  0  0  0  0  0  0  0
   -0.8504    0.1171    0.0000 C   0  0  0  0  0  0  0  0  0
    0.5786    0.1171    0.0000 C   0  0  0  0  0  0  0  0  0
   -0.1359    0.5296    0.0000 C   0  0  0  0  0  0  0  0  0
   -0.1359    1.3546    0.0000 C   0  0  0  0  0  0  0  0  0
    0.5786    1.7671    0.0000 C   0  0  0  0  0  0  0  0  0
    1.2930    1.3546    0.0000 C   0  0  0  0  0  0  0  0  0
    1.2930    0.5296    0.0000 C   0  0  0  0  0  0  0  0  0
    2.0075    0.1171    0.0000 O   0  0  0  0  0  0  0  0  0
    2.7220    0.5296    0.0000 C   0  0  0  0  0  0  0  0  0
  1  2  1  0  0  0  0
  1 15  1  0  0  0  0
  2  3  1  0  0  0  0
  2  9  1  0  0  0  0
  3  4  1  0  0  0  0
  3  8  1  0  0  0  0
  4  5  1  0  0  0  0
  5  6  1  0  0  0  0
  6  7  1  0  0  0  0
  7  8  1  0  0  0  0
  9 10  4  0  0  0  0
  9 14  4  0  0  0  0
 10 11  4  0  0  0  0
 11 12  4  0  0  0  0
 12 13  4  0  0  0  0
 13 14  4  0  0  0  0
 15 16  4  0  0  0  0
 15 20  4  0  0  0  0
 16 17  4  0  0  0  0
 17 18  4  0  0  0  0
 18 19  4  0  0  0  0
 19 20  4  0  0  0  0
 20 21  1  0  0  0  0
 21 22  1  0  0  0  0
M  END
>  <Name_Molregno>
302743

>  <Dopamine transporter>
5.4

>  <Norepinephrine transporter>
9.12

>  <Serotonin transporter>
8.01

$$$$
302750
  Marvin  02231216192D 0   1.00000     0.00000     0

 21 23  0  0  1  0  0  0  0  0999 V2000
    0.7983   -0.7820    0.0000 S   0  0  0  0  0  0  0  0  0
    0.0838   -1.1945    0.0000 C   0  0  0  0  0  0  0  0  0
    0.0838   -2.0195    0.0000 C   0  0  0  0  0  0  0  0  0
   -0.6306   -2.4320    0.0000 O   0  0  0  0  0  0  0  0  0
   -0.6306   -3.2570    0.0000 C   0  0  0  0  0  0  0  0  0
    0.0838   -3.6695    0.0000 C   0  0  0  0  0  0  0  0  0
    0.7983   -3.2570    0.0000 N   0  0  0  0  0  0  0  0  0
    0.7983   -2.4320    0.0000 C   0  0  0  0  0  0  0  0  0
   -0.6306   -0.7820    0.0000 C   0  0  0  0  0  0  0  0  0
   -1.3451   -1.1945    0.0000 C   0  0  0  0  0  0  0  0  0
   -2.0596   -0.7820    0.0000 C   0  0  0  0  0  0  0  0  0
   -2.0596    0.0430    0.0000 C   0  0  0  0  0  0  0  0  0
   -1.3451    0.4555    0.0000 C   0  0  0  0  0  0  0  0  0
   -0.6306    0.0430    0.0000 C   0  0  0  0  0  0  0  0  0
    0.7983    0.0430    0.0000 C   0  0  0  0  0  0  0  0  0
    0.0838    0.4555    0.0000 C   0  0  0  0  0  0  0  0  0
    0.0838    1.2805    0.0000 C   0  0  0  0  0  0  0  0  0
    0.7983    1.6930    0.0000 C   0  0  0  0  0  0  0  0  0
    1.5128    1.2805    0.0000 C   0  0  0  0  0  0  0  0  0
    1.5128    0.4555    0.0000 C   0  0  0  0  0  0  0  0  0
    2.2272    0.0430    0.0000 C   0  0  0  0  0  0  0  0  0
  1  2  1  0  0  0  0
  1 15  1  0  0  0  0
  2  3  1  0  0  0  0
  2  9  1  0  0  0  0
  3  4  1  0  0  0  0
  3  8  1  0  0  0  0
  4  5  1  0  0  0  0
  5  6  1  0  0  0  0
  6  7  1  0  0  0  0
  7  8  1  0  0  0  0
  9 10  4  0  0  0  0
  9 14  4  0  0  0  0
 10 11  4  0  0  0  0
 11 12  4  0  0  0  0
 12 13  4  0  0  0  0
 13 14  4  0  0  0  0
 15 16  4  0  0  0  0
 15 20  4  0  0  0  0
 16 17  4  0  0  0  0
 17 18  4  0  0  0  0
 18 19  4  0  0  0  0
 19 20  4  0  0  0  0
 20 21  1  0  0  0  0
M  END
>  <Name_Molregno>
302750

>  <Dopamine transporter>
6.56

>  <Norepinephrine transporter>
9.52

>  <Serotonin transporter>
7.83

$$$$
316659
  Marvin  02231216192D 0   1.00000     0.00000     0

 18 19  0  0  0  0  0  0  0  0999 V2000
   -0.2481    0.0407    0.0000 S   0  0  0  0  0  0  0  0  0
   -0.2481   -0.7843    0.0000 C   0  0  0  0  0  0  0  0  0
    0.4663   -1.1968    0.0000 C   0  0  0  0  0  0  0  0  0
    0.4663   -2.0218    0.0000 C   0  0  0  0  0  0  0  0  0
   -0.2481   -2.4343    0.0000 C   0  0  0  0  0  0  0  0  0
   -0.9626   -2.0218    0.0000 C   0  0  0  0  0  0  0  0  0
   -0.9626   -1.1968    0.0000 C   0  0  0  0  0  0  0  0  0
   -1.6771   -0.7843    0.0000 C   0  0  0  0  0  0  0  0  0
   -2.3915   -1.1968    0.0000 N   0  0  0  0  0  0  0  0  0
   -3.1060   -0.7843    0.0000 C   0  0  0  0  0  0  0  0  0
    0.4663    0.4532    0.0000 C   0  0  0  0  0  0  0  0  0
    0.4663    1.2782    0.0000 C   0  0  0  0  0  0  0  0  0
    1.1808    1.6907    0.0000 C   0  0  0  0  0  0  0  0  0
    1.8953    1.2782    0.0000 C   0  0  0  0  0  0  0  0  0
    1.8953    0.4532    0.0000 C   0  0  0  0  0  0  0  0  0
    1.1808    0.0407    0.0000 C   0  0  0  0  0  0  0  0  0
    1.1808   -0.7843    0.0000 N   0  0  0  0  0  0  0  0  0
    2.6098    1.6907    0.0000 C   0  0  0  0  0  0  0  0  0
  1  2  1  0  0  0  0
  1 11  1  0  0  0  0
  2  3  4  0  0  0  0
  2  7  4  0  0  0  0
  3  4  4  0  0  0  0
  4  5  4  0  0  0  0
  5  6  4  0  0  0  0
  6  7  4  0  0  0  0
  7  8  1  0  0  0  0
  8  9  1  0  0  0  0
  9 10  1  0  0  0  0
 11 12  4  0  0  0  0
 11 16  4  0  0  0  0
 12 13  4  0  0  0  0
 13 14  4  0  0  0  0
 14 15  4  0  0  0  0
 14 18  1  0  0  0  0
 15 16  4  0  0  0  0
 16 17  1  0  0  0  0
M  END
>  <Name_Molregno>
316659

>  <Dopamine transporter>
6.16

>  <Norepinephrine transporter>
6.72

>  <Serotonin transporter>
8.71

$$$$
316660
  Marvin  02231216192D 0   1.00000     0.00000     0

 19 20  0  0  0  0  0  0  0  0999 V2000
   -0.1927   -0.0541    0.0000 S   0  0  0  0  0  0  0  0  0
   -0.1927   -0.8791    0.0000 C   0  0  0  0  0  0  0  0  0
    0.5218   -1.2916    0.0000 C   0  0  0  0  0  0  0  0  0
    0.5218   -2.1166    0.0000 C   0  0  0  0  0  0  0  0  0
   -0.1927   -2.5291    0.0000 C   0  0  0  0  0  0  0  0  0
   -0.9072   -2.1166    0.0000 C   0  0  0  0  0  0  0  0  0
   -0.9072   -1.2916    0.0000 C   0  0  0  0  0  0  0  0  0
   -1.6217   -0.8791    0.0000 C   0  0  0  0  0  0  0  0  0
   -2.3361   -1.2916    0.0000 N   0  0  0  0  0  0  0  0  0
   -3.0506   -0.8791    0.0000 C   0  0  0  0  0  0  0  0  0
    0.5218    0.3584    0.0000 C   0  0  0  0  0  0  0  0  0
    0.5218    1.1834    0.0000 C   0  0  0  0  0  0  0  0  0
    1.2362    1.5959    0.0000 C   0  0  0  0  0  0  0  0  0
    1.9507    1.1834    0.0000 C   0  0  0  0  0  0  0  0  0
    1.9507    0.3584    0.0000 C   0  0  0  0  0  0  0  0  0
    1.2362   -0.0541    0.0000 C   0  0  0  0  0  0  0  0  0
    1.2362   -0.8791    0.0000 N   0  0  0  0  0  0  0  0  0
    2.6652    1.5959    0.0000 C   0  0  0  0  0  0  0  0  0
    2.6652    2.4209    0.0000 C   0  0  0  0  0  0  0  0  0
  1  2  1  0  0  0  0
  1 11  1  0  0  0  0
  2  3  4  0  0  0  0
  2  7  4  0  0  0  0
  3  4  4  0  0  0  0
  4  5  4  0  0  0  0
  5  6  4  0  0  0  0
  6  7  4  0  0  0  0
  7  8  1  0  0  0  0
  8  9  1  0  0  0  0
  9 10  1  0  0  0  0
 11 12  4  0  0  0  0
 11 16  4  0  0  0  0
 12 13  4  0  0  0  0
 13 14  4  0  0  0  0
 14 15  4  0  0  0  0
 14 18  1  0  0  0  0
 15 16  4  0  0  0  0
 16 17  1  0  0  0  0
 18 19  1  0  0  0  0
M  END
>  <Name_Molregno>
316660

>  <Dopamine transporter>
6

>  <Norepinephrine transporter>
6.35

>  <Serotonin transporter>
8.69

$$$$
316692
  Marvin  02231216192D 0   1.00000     0.00000     0

 18 19  0  0  0  0  0  0  0  0999 V2000
   -0.3017    0.2087    0.0000 S   0  0  0  0  0  0  0  0  0
   -0.3017   -0.6163    0.0000 C   0  0  0  0  0  0  0  0  0
    0.4128   -1.0288    0.0000 C   0  0  0  0  0  0  0  0  0
    0.4128   -1.8538    0.0000 C   0  0  0  0  0  0  0  0  0
   -0.3017   -2.2663    0.0000 C   0  0  0  0  0  0  0  0  0
   -1.0162   -1.8538    0.0000 C   0  0  0  0  0  0  0  0  0
   -1.0162   -1.0288    0.0000 C   0  0  0  0  0  0  0  0  0
   -1.7306   -0.6163    0.0000 C   0  0  0  0  0  0  0  0  0
   -2.4451   -1.0288    0.0000 N   0  0  0  0  0  0  0  0  0
   -3.1596   -0.6163    0.0000 C   0  0  0  0  0  0  0  0  0
   -2.4451   -1.8538    0.0000 C   0  0  0  0  0  0  0  0  0
    0.4128    0.6212    0.0000 C   0  0  0  0  0  0  0  0  0
    0.4128    1.4462    0.0000 C   0  0  0  0  0  0  0  0  0
    1.1272    1.8587    0.0000 C   0  0  0  0  0  0  0  0  0
    1.8417    1.4462    0.0000 C   0  0  0  0  0  0  0  0  0
    1.8417    0.6212    0.0000 C   0  0  0  0  0  0  0  0  0
    1.1272    0.2087    0.0000 C   0  0  0  0  0  0  0  0  0
    1.1272   -0.6163    0.0000 N   0  0  0  0  0  0  0  0  0
  1  2  1  0  0  0  0
  1 12  1  0  0  0  0
  2  3  4  0  0  0  0
  2  7  4  0  0  0  0
  3  4  4  0  0  0  0
  4  5  4  0  0  0  0
  5  6  4  0  0  0  0
  6  7  4  0  0  0  0
  7  8  1  0  0  0  0
  8  9  1  0  0  0  0
  9 10  1  0  0  0  0
  9 11  1  0  0  0  0
 12 13  4  0  0  0  0
 12 17  4  0  0  0  0
 13 14  4  0  0  0  0
 14 15  4  0  0  0  0
 15 16  4  0  0  0  0
 16 17  4  0  0  0  0
 17 18  1  0  0  0  0
M  END
>  <Name_Molregno>
316692

>  <Dopamine transporter>
6.55

>  <Norepinephrine transporter>
8.31

>  <Serotonin transporter>
8.8

$$$$
316693
  Marvin  02231216192D 0   1.00000     0.00000     0

 20 21  0  0  0  0  0  0  0  0999 V2000
   -0.2180    0.0162    0.0000 S   0  0  0  0  0  0  0  0  0
   -0.2180   -0.8088    0.0000 C   0  0  0  0  0  0  0  0  0
    0.4965   -1.2213    0.0000 C   0  0  0  0  0  0  0  0  0
    0.4965   -2.0463    0.0000 C   0  0  0  0  0  0  0  0  0
   -0.2180   -2.4588    0.0000 C   0  0  0  0  0  0  0  0  0
   -0.9324   -2.0463    0.0000 C   0  0  0  0  0  0  0  0  0
   -0.9324   -1.2213    0.0000 C   0  0  0  0  0  0  0  0  0
   -1.6469   -0.8088    0.0000 C   0  0  0  0  0  0  0  0  0
   -2.3614   -1.2213    0.0000 N   0  0  0  0  0  0  0  0  0
   -3.0759   -0.8088    0.0000 C   0  0  0  0  0  0  0  0  0
   -2.3614   -2.0463    0.0000 C   0  0  0  0  0  0  0  0  0
    0.4965    0.4287    0.0000 C   0  0  0  0  0  0  0  0  0
    0.4965    1.2537    0.0000 C   0  0  0  0  0  0  0  0  0
    1.2110    1.6662    0.0000 C   0  0  0  0  0  0  0  0  0
    1.9254    1.2537    0.0000 C   0  0  0  0  0  0  0  0  0
    1.9254    0.4287    0.0000 C   0  0  0  0  0  0  0  0  0
    1.2110    0.0162    0.0000 C   0  0  0  0  0  0  0  0  0
    1.2110   -0.8088    0.0000 N   0  0  0  0  0  0  0  0  0
    2.6399    1.6662    0.0000 C   0  0  0  0  0  0  0  0  0
    2.6399    2.4912    0.0000 C   0  0  0  0  0  0  0  0  0
  1  2  1  0  0  0  0
  1 12  1  0  0  0  0
  2  3  4  0  0  0  0
  2  7  4  0  0  0  0
  3  4  4  0  0  0  0
  4  5  4  0  0  0  0
  5  6  4  0  0  0  0
  6  7  4  0  0  0  0
  7  8  1  0  0  0  0
  8  9  1  0  0  0  0
  9 10  1  0  0  0  0
  9 11  1  0  0  0  0
 12 13  4  0  0  0  0
 12 17  4  0  0  0  0
 13 14  4  0  0  0  0
 14 15  4  0  0  0  0
 15 16  4  0  0  0  0
 15 19  1  0  0  0  0
 16 17  4  0  0  0  0
 17 18  1  0  0  0  0
 19 20  2  0  0  0  0
M  END
>  <Name_Molregno>
316693

>  <Dopamine transporter>
6.02

>  <Norepinephrine transporter>
6.57

>  <Serotonin transporter>
8.95

$$$$
316848
  Marvin  02231216192D 0   1.00000     0.00000     0

 21 22  0  0  0  0  0  0  0  0999 V2000
   -0.2328    0.0311    0.0000 S   0  0  0  0  0  0  0  0  0
   -0.2328   -0.7939    0.0000 C   0  0  0  0  0  0  0  0  0
    0.4817   -1.2064    0.0000 C   0  0  0  0  0  0  0  0  0
    0.4817   -2.0314    0.0000 C   0  0  0  0  0  0  0  0  0
   -0.2328   -2.4439    0.0000 C   0  0  0  0  0  0  0  0  0
   -0.9472   -2.0314    0.0000 C   0  0  0  0  0  0  0  0  0
   -0.9472   -1.2064    0.0000 C   0  0  0  0  0  0  0  0  0
   -1.6617   -0.7939    0.0000 C   0  0  0  0  0  0  0  0  0
   -2.3762   -1.2064    0.0000 N   0  0  0  0  0  0  0  0  0
   -3.0907   -0.7939    0.0000 C   0  0  0  0  0  0  0  0  0
   -2.3762   -2.0314    0.0000 C   0  0  0  0  0  0  0  0  0
    0.4817    0.4436    0.0000 C   0  0  0  0  0  0  0  0  0
    0.4817    1.2686    0.0000 C   0  0  0  0  0  0  0  0  0
    1.1962    1.6811    0.0000 C   0  0  0  0  0  0  0  0  0
    1.9106    1.2686    0.0000 C   0  0  0  0  0  0  0  0  0
    1.9106    0.4436    0.0000 C   0  0  0  0  0  0  0  0  0
    1.1962    0.0311    0.0000 C   0  0  0  0  0  0  0  0  0
    1.1962   -0.7939    0.0000 N   0  0  0  0  0  0  0  0  0
    2.6251    1.6811    0.0000 C   0  0  0  0  0  0  0  0  0
    3.3396    1.2686    0.0000 C   0  0  0  0  0  0  0  0  0
    4.0541    1.6811    0.0000 O   0  0  0  0  0  0  0  0  0
  1  2  1  0  0  0  0
  1 12  1  0  0  0  0
  2  3  4  0  0  0  0
  2  7  4  0  0  0  0
  3  4  4  0  0  0  0
  4  5  4  0  0  0  0
  5  6  4  0  0  0  0
  6  7  4  0  0  0  0
  7  8  1  0  0  0  0
  8  9  1  0  0  0  0
  9 10  1  0  0  0  0
  9 11  1  0  0  0  0
 12 13  4  0  0  0  0
 12 17  4  0  0  0  0
 13 14  4  0  0  0  0
 14 15  4  0  0  0  0
 15 16  4  0  0  0  0
 15 19  1  0  0  0  0
 16 17  4  0  0  0  0
 17 18  1  0  0  0  0
 19 20  1  0  0  0  0
 20 21  1  0  0  0  0
M  END
>  <Name_Molregno>
316848

>  <Dopamine transporter>
6

>  <Norepinephrine transporter>
6.71

>  <Serotonin transporter>
7.3

$$$$
316849
  Marvin  02231216192D 0   1.00000     0.00000     0

 21 22  0  0  0  0  0  0  0  0999 V2000
   -0.2328    0.0311    0.0000 S   0  0  0  0  0  0  0  0  0
   -0.2328   -0.7939    0.0000 C   0  0  0  0  0  0  0  0  0
    0.4817   -1.2064    0.0000 C   0  0  0  0  0  0  0  0  0
    0.4817   -2.0314    0.0000 C   0  0  0  0  0  0  0  0  0
   -0.2328   -2.4439    0.0000 C   0  0  0  0  0  0  0  0  0
   -0.9472   -2.0314    0.0000 C   0  0  0  0  0  0  0  0  0
   -0.9472   -1.2064    0.0000 C   0  0  0  0  0  0  0  0  0
   -1.6617   -0.7939    0.0000 C   0  0  0  0  0  0  0  0  0
   -2.3762   -1.2064    0.0000 N   0  0  0  0  0  0  0  0  0
   -3.0907   -0.7939    0.0000 C   0  0  0  0  0  0  0  0  0
   -2.3762   -2.0314    0.0000 C   0  0  0  0  0  0  0  0  0
    0.4817    0.4436    0.0000 C   0  0  0  0  0  0  0  0  0
    0.4817    1.2686    0.0000 C   0  0  0  0  0  0  0  0  0
    1.1962    1.6811    0.0000 C   0  0  0  0  0  0  0  0  0
    1.9106    1.2686    0.0000 C   0  0  0  0  0  0  0  0  0
    1.9106    0.4436    0.0000 C   0  0  0  0  0  0  0  0  0
    1.1962    0.0311    0.0000 C   0  0  0  0  0  0  0  0  0
    1.1962   -0.7939    0.0000 N   0  0  0  0  0  0  0  0  0
    2.6251    1.6811    0.0000 C   0  0  0  0  0  0  0  0  0
    3.3396    1.2686    0.0000 C   0  0  0  0  0  0  0  0  0
    4.0541    1.6811    0.0000 F   0  0  0  0  0  0  0  0  0
  1  2  1  0  0  0  0
  1 12  1  0  0  0  0
  2  3  4  0  0  0  0
  2  7  4  0  0  0  0
  3  4  4  0  0  0  0
  4  5  4  0  0  0  0
  5  6  4  0  0  0  0
  6  7  4  0  0  0  0
  7  8  1  0  0  0  0
  8  9  1  0  0  0  0
  9 10  1  0  0  0  0
  9 11  1  0  0  0  0
 12 13  4  0  0  0  0
 12 17  4  0  0  0  0
 13 14  4  0  0  0  0
 14 15  4  0  0  0  0
 15 16  4  0  0  0  0
 15 19  1  0  0  0  0
 16 17  4  0  0  0  0
 17 18  1  0  0  0  0
 19 20  1  0  0  0  0
 20 21  1  0  0  0  0
M  END
>  <Name_Molregno>
316849

>  <Dopamine transporter>
5.15

>  <Norepinephrine transporter>
5.66

>  <Serotonin transporter>
8.4

$$$$
316956
  Marvin  02231216192D 0   1.00000     0.00000     0

 17 18  0  0  0  0  0  0  0  0999 V2000
   -0.2808    0.1410    0.0000 S   0  0  0  0  0  0  0  0  0
   -0.2808   -0.6840    0.0000 C   0  0  0  0  0  0  0  0  0
    0.4337   -1.0965    0.0000 C   0  0  0  0  0  0  0  0  0
    0.4337   -1.9215    0.0000 C   0  0  0  0  0  0  0  0  0
   -0.2808   -2.3340    0.0000 C   0  0  0  0  0  0  0  0  0
   -0.9952   -1.9215    0.0000 C   0  0  0  0  0  0  0  0  0
   -0.9952   -1.0965    0.0000 C   0  0  0  0  0  0  0  0  0
   -1.7097   -0.6840    0.0000 C   0  0  0  0  0  0  0  0  0
   -2.4242   -1.0965    0.0000 N   0  0  0  0  0  0  0  0  0
   -3.1386   -0.6840    0.0000 C   0  0  0  0  0  0  0  0  0
    0.4337    0.5535    0.0000 C   0  0  0  0  0  0  0  0  0
    0.4337    1.3785    0.0000 C   0  0  0  0  0  0  0  0  0
    1.1482    1.7910    0.0000 C   0  0  0  0  0  0  0  0  0
    1.8627    1.3785    0.0000 C   0  0  0  0  0  0  0  0  0
    1.8627    0.5535    0.0000 C   0  0  0  0  0  0  0  0  0
    1.1482    0.1410    0.0000 C   0  0  0  0  0  0  0  0  0
    1.1482   -0.6840    0.0000 N   0  0  0  0  0  0  0  0  0
  1  2  1  0  0  0  0
  1 11  1  0  0  0  0
  2  3  4  0  0  0  0
  2  7  4  0  0  0  0
  3  4  4  0  0  0  0
  4  5  4  0  0  0  0
  5  6  4  0  0  0  0
  6  7  4  0  0  0  0
  7  8  1  0  0  0  0
  8  9  1  0  0  0  0
  9 10  1  0  0  0  0
 11 12  4  0  0  0  0
 11 16  4  0  0  0  0
 12 13  4  0  0  0  0
 13 14  4  0  0  0  0
 14 15  4  0  0  0  0
 15 16  4  0  0  0  0
 16 17  1  0  0  0  0
M  END
>  <Name_Molregno>
316956

>  <Dopamine transporter>
6.01

>  <Norepinephrine transporter>
7.43

>  <Serotonin transporter>
7.08

$$$$
317023
  Marvin  02231216192D 0   1.00000     0.00000     0

 20 21  0  0  0  0  0  0  0  0999 V2000
   -0.2180    0.0162    0.0000 S   0  0  0  0  0  0  0  0  0
   -0.2180   -0.8088    0.0000 C   0  0  0  0  0  0  0  0  0
    0.4965   -1.2213    0.0000 C   0  0  0  0  0  0  0  0  0
    0.4965   -2.0463    0.0000 C   0  0  0  0  0  0  0  0  0
   -0.2180   -2.4588    0.0000 C   0  0  0  0  0  0  0  0  0
   -0.9324   -2.0463    0.0000 C   0  0  0  0  0  0  0  0  0
   -0.9324   -1.2213    0.0000 C   0  0  0  0  0  0  0  0  0
   -1.6469   -0.8088    0.0000 C   0  0  0  0  0  0  0  0  0
   -2.3614   -1.2213    0.0000 N   0  0  0  0  0  0  0  0  0
   -3.0759   -0.8088    0.0000 C   0  0  0  0  0  0  0  0  0
   -2.3614   -2.0463    0.0000 C   0  0  0  0  0  0  0  0  0
    0.4965    0.4287    0.0000 C   0  0  0  0  0  0  0  0  0
    0.4965    1.2537    0.0000 C   0  0  0  0  0  0  0  0  0
    1.2110    1.6662    0.0000 C   0  0  0  0  0  0  0  0  0
    1.9254    1.2537    0.0000 C   0  0  0  0  0  0  0  0  0
    1.9254    0.4287    0.0000 C   0  0  0  0  0  0  0  0  0
    1.2110    0.0162    0.0000 C   0  0  0  0  0  0  0  0  0
    1.2110   -0.8088    0.0000 N   0  0  0  0  0  0  0  0  0
    2.6399    1.6662    0.0000 C   0  0  0  0  0  0  0  0  0
    2.6399    2.4912    0.0000 C   0  0  0  0  0  0  0  0  0
  1  2  1  0  0  0  0
  1 12  1  0  0  0  0
  2  3  4  0  0  0  0
  2  7  4  0  0  0  0
  3  4  4  0  0  0  0
  4  5  4  0  0  0  0
  5  6  4  0  0  0  0
  6  7  4  0  0  0  0
  7  8  1  0  0  0  0
  8  9  1  0  0  0  0
  9 10  1  0  0  0  0
  9 11  1  0  0  0  0
 12 13  4  0  0  0  0
 12 17  4  0  0  0  0
 13 14  4  0  0  0  0
 14 15  4  0  0  0  0
 15 16  4  0  0  0  0
 15 19  1  0  0  0  0
 16 17  4  0  0  0  0
 17 18  1  0  0  0  0
 19 20  1  0  0  0  0
M  END
>  <Name_Molregno>
317023

>  <Dopamine transporter>
5.7

>  <Norepinephrine transporter>
6.43

>  <Serotonin transporter>
9.31

$$$$
317057
  Marvin  02231216192D 0   1.00000     0.00000     0

 20 21  0  0  0  0  0  0  0  0999 V2000
   -0.2180    0.0162    0.0000 S   0  0  0  0  0  0  0  0  0
   -0.2180   -0.8088    0.0000 C   0  0  0  0  0  0  0  0  0
    0.4965   -1.2213    0.0000 C   0  0  0  0  0  0  0  0  0
    0.4965   -2.0463    0.0000 C   0  0  0  0  0  0  0  0  0
   -0.2180   -2.4588    0.0000 C   0  0  0  0  0  0  0  0  0
   -0.9324   -2.0463    0.0000 C   0  0  0  0  0  0  0  0  0
   -0.9324   -1.2213    0.0000 C   0  0  0  0  0  0  0  0  0
   -1.6469   -0.8088    0.0000 C   0  0  0  0  0  0  0  0  0
   -2.3614   -1.2213    0.0000 N   0  0  0  0  0  0  0  0  0
   -3.0759   -0.8088    0.0000 C   0  0  0  0  0  0  0  0  0
   -2.3614   -2.0463    0.0000 C   0  0  0  0  0  0  0  0  0
    0.4965    0.4287    0.0000 C   0  0  0  0  0  0  0  0  0
    0.4965    1.2537    0.0000 C   0  0  0  0  0  0  0  0  0
    1.2110    1.6662    0.0000 C   0  0  0  0  0  0  0  0  0
    1.9254    1.2537    0.0000 C   0  0  0  0  0  0  0  0  0
    1.9254    0.4287    0.0000 C   0  0  0  0  0  0  0  0  0
    1.2110    0.0162    0.0000 C   0  0  0  0  0  0  0  0  0
    1.2110   -0.8088    0.0000 N   0  0  0  0  0  0  0  0  0
    2.6399    1.6662    0.0000 C   0  0  0  0  0  0  0  0  0
    2.6399    2.4912    0.0000 O   0  0  0  0  0  0  0  0  0
  1  2  1  0  0  0  0
  1 12  1  0  0  0  0
  2  3  4  0  0  0  0
  2  7  4  0  0  0  0
  3  4  4  0  0  0  0
  4  5  4  0  0  0  0
  5  6  4  0  0  0  0
  6  7  4  0  0  0  0
  7  8  1  0  0  0  0
  8  9  1  0  0  0  0
  9 10  1  0  0  0  0
  9 11  1  0  0  0  0
 12 13  4  0  0  0  0
 12 17  4  0  0  0  0
 13 14  4  0  0  0  0
 14 15  4  0  0  0  0
 15 16  4  0  0  0  0
 15 19  1  0  0  0  0
 16 17  4  0  0  0  0
 17 18  1  0  0  0  0
 19 20  1  0  0  0  0
M  END
>  <Name_Molregno>
317057

>  <Dopamine transporter>
5.81

>  <Norepinephrine transporter>
6.38

>  <Serotonin transporter>
9.19

$$$$
317171
  Marvin  02231216192D 0   1.00000     0.00000     0

 22 23  0  0  0  0  0  0  0  0999 V2000
   -0.1003   -0.1860    0.0000 S   0  0  0  0  0  0  0  0  0
   -0.1003   -1.0110    0.0000 C   0  0  0  0  0  0  0  0  0
    0.6142   -1.4235    0.0000 C   0  0  0  0  0  0  0  0  0
    0.6142   -2.2485    0.0000 C   0  0  0  0  0  0  0  0  0
   -0.1003   -2.6610    0.0000 C   0  0  0  0  0  0  0  0  0
   -0.8148   -2.2485    0.0000 C   0  0  0  0  0  0  0  0  0
   -0.8148   -1.4235    0.0000 C   0  0  0  0  0  0  0  0  0
   -1.5293   -1.0110    0.0000 C   0  0  0  0  0  0  0  0  0
   -2.2437   -1.4235    0.0000 N   0  0  0  0  0  0  0  0  0
   -2.9582   -1.0110    0.0000 C   0  0  0  0  0  0  0  0  0
   -2.2437   -2.2485    0.0000 C   0  0  0  0  0  0  0  0  0
    0.6142    0.2265    0.0000 C   0  0  0  0  0  0  0  0  0
    0.6142    1.0515    0.0000 C   0  0  0  0  0  0  0  0  0
    1.3286    1.4640    0.0000 C   0  0  0  0  0  0  0  0  0
    2.0431    1.0515    0.0000 C   0  0  0  0  0  0  0  0  0
    2.0431    0.2265    0.0000 C   0  0  0  0  0  0  0  0  0
    1.3286   -0.1860    0.0000 C   0  0  0  0  0  0  0  0  0
    1.3286   -1.0110    0.0000 N   0  0  0  0  0  0  0  0  0
    2.7576    1.4640    0.0000 C   0  0  0  0  0  0  0  0  0
    2.7576    2.2890    0.0000 C   0  0  0  0  0  0  0  0  0
    3.4720    2.7015    0.0000 C   0  0  0  0  0  0  0  0  0
    3.4720    3.5265    0.0000 O   0  0  0  0  0  0  0  0  0
  1  2  1  0  0  0  0
  1 12  1  0  0  0  0
  2  3  4  0  0  0  0
  2  7  4  0  0  0  0
  3  4  4  0  0  0  0
  4  5  4  0  0  0  0
  5  6  4  0  0  0  0
  6  7  4  0  0  0  0
  7  8  1  0  0  0  0
  8  9  1  0  0  0  0
  9 10  1  0  0  0  0
  9 11  1  0  0  0  0
 12 13  4  0  0  0  0
 12 17  4  0  0  0  0
 13 14  4  0  0  0  0
 14 15  4  0  0  0  0
 15 16  4  0  0  0  0
 15 19  1  0  0  0  0
 16 17  4  0  0  0  0
 17 18  1  0  0  0  0
 19 20  1  0  0  0  0
 20 21  1  0  0  0  0
 21 22  1  0  0  0  0
M  END
>  <Name_Molregno>
317171

>  <Dopamine transporter>
5.3

>  <Norepinephrine transporter>
6.97

>  <Serotonin transporter>
7.03

$$$$
317172
  Marvin  02231216192D 0   1.00000     0.00000     0

 22 23  0  0  0  0  0  0  0  0999 V2000
   -0.1003   -0.1860    0.0000 S   0  0  0  0  0  0  0  0  0
   -0.1003   -1.0110    0.0000 C   0  0  0  0  0  0  0  0  0
    0.6142   -1.4235    0.0000 C   0  0  0  0  0  0  0  0  0
    0.6142   -2.2485    0.0000 C   0  0  0  0  0  0  0  0  0
   -0.1003   -2.6610    0.0000 C   0  0  0  0  0  0  0  0  0
   -0.8148   -2.2485    0.0000 C   0  0  0  0  0  0  0  0  0
   -0.8148   -1.4235    0.0000 C   0  0  0  0  0  0  0  0  0
   -1.5293   -1.0110    0.0000 C   0  0  0  0  0  0  0  0  0
   -2.2437   -1.4235    0.0000 N   0  0  0  0  0  0  0  0  0
   -2.9582   -1.0110    0.0000 C   0  0  0  0  0  0  0  0  0
   -2.2437   -2.2485    0.0000 C   0  0  0  0  0  0  0  0  0
    0.6142    0.2265    0.0000 C   0  0  0  0  0  0  0  0  0
    0.6142    1.0515    0.0000 C   0  0  0  0  0  0  0  0  0
    1.3286    1.4640    0.0000 C   0  0  0  0  0  0  0  0  0
    2.0431    1.0515    0.0000 C   0  0  0  0  0  0  0  0  0
    2.0431    0.2265    0.0000 C   0  0  0  0  0  0  0  0  0
    1.3286   -0.1860    0.0000 C   0  0  0  0  0  0  0  0  0
    1.3286   -1.0110    0.0000 N   0  0  0  0  0  0  0  0  0
    2.7576    1.4640    0.0000 C   0  0  0  0  0  0  0  0  0
    2.7576    2.2890    0.0000 C   0  0  0  0  0  0  0  0  0
    3.4720    2.7015    0.0000 C   0  0  0  0  0  0  0  0  0
    3.4720    3.5265    0.0000 F   0  0  0  0  0  0  0  0  0
  1  2  1  0  0  0  0
  1 12  1  0  0  0  0
  2  3  4  0  0  0  0
  2  7  4  0  0  0  0
  3  4  4  0  0  0  0
  4  5  4  0  0  0  0
  5  6  4  0  0  0  0
  6  7  4  0  0  0  0
  7  8  1  0  0  0  0
  8  9  1  0  0  0  0
  9 10  1  0  0  0  0
  9 11  1  0  0  0  0
 12 13  4  0  0  0  0
 12 17  4  0  0  0  0
 13 14  4  0  0  0  0
 14 15  4  0  0  0  0
 15 16  4  0  0  0  0
 15 19  1  0  0  0  0
 16 17  4  0  0  0  0
 17 18  1  0  0  0  0
 19 20  1  0  0  0  0
 20 21  1  0  0  0  0
 21 22  1  0  0  0  0
M  END
>  <Name_Molregno>
317172

>  <Dopamine transporter>
5.15

>  <Norepinephrine transporter>
6.48

>  <Serotonin transporter>
8.26

$$$$
317571
  Marvin  02231216192D 0   1.00000     0.00000     0

 19 20  0  0  0  0  0  0  0  0999 V2000
   -0.1927   -0.0541    0.0000 S   0  0  0  0  0  0  0  0  0
   -0.1927   -0.8791    0.0000 C   0  0  0  0  0  0  0  0  0
    0.5218   -1.2916    0.0000 C   0  0  0  0  0  0  0  0  0
    0.5218   -2.1166    0.0000 C   0  0  0  0  0  0  0  0  0
   -0.1927   -2.5291    0.0000 C   0  0  0  0  0  0  0  0  0
   -0.9072   -2.1166    0.0000 C   0  0  0  0  0  0  0  0  0
   -0.9072   -1.2916    0.0000 C   0  0  0  0  0  0  0  0  0
   -1.6217   -0.8791    0.0000 C   0  0  0  0  0  0  0  0  0
   -2.3361   -1.2916    0.0000 N   0  0  0  0  0  0  0  0  0
   -3.0506   -0.8791    0.0000 C   0  0  0  0  0  0  0  0  0
    0.5218    0.3584    0.0000 C   0  0  0  0  0  0  0  0  0
    0.5218    1.1834    0.0000 C   0  0  0  0  0  0  0  0  0
    1.2362    1.5959    0.0000 C   0  0  0  0  0  0  0  0  0
    1.9507    1.1834    0.0000 C   0  0  0  0  0  0  0  0  0
    1.9507    0.3584    0.0000 C   0  0  0  0  0  0  0  0  0
    1.2362   -0.0541    0.0000 C   0  0  0  0  0  0  0  0  0
    1.2362   -0.8791    0.0000 N   0  0  0  0  0  0  0  0  0
    2.6652    1.5959    0.0000 C   0  0  0  0  0  0  0  0  0
    2.6652    2.4209    0.0000 O   0  0  0  0  0  0  0  0  0
  1  2  1  0  0  0  0
  1 11  1  0  0  0  0
  2  3  4  0  0  0  0
  2  7  4  0  0  0  0
  3  4  4  0  0  0  0
  4  5  4  0  0  0  0
  5  6  4  0  0  0  0
  6  7  4  0  0  0  0
  7  8  1  0  0  0  0
  8  9  1  0  0  0  0
  9 10  1  0  0  0  0
 11 12  4  0  0  0  0
 11 16  4  0  0  0  0
 12 13  4  0  0  0  0
 13 14  4  0  0  0  0
 14 15  4  0  0  0  0
 14 18  1  0  0  0  0
 15 16  4  0  0  0  0
 16 17  1  0  0  0  0
 18 19  1  0  0  0  0
M  END
>  <Name_Molregno>
317571

>  <Dopamine transporter>
6

>  <Norepinephrine transporter>
6.32

>  <Serotonin transporter>
7.82

$$$$
320276
  Marvin  02231216192D 0   1.00000     0.00000     0

 19 20  0  0  0  0  0  0  0  0999 V2000
   -0.2663    0.1112    0.0000 S   0  0  0  0  0  0  0  0  0
   -0.2663   -0.7138    0.0000 C   0  0  0  0  0  0  0  0  0
    0.4482   -1.1263    0.0000 C   0  0  0  0  0  0  0  0  0
    0.4482   -1.9513    0.0000 C   0  0  0  0  0  0  0  0  0
   -0.2663   -2.3638    0.0000 C   0  0  0  0  0  0  0  0  0
   -0.9808   -1.9513    0.0000 C   0  0  0  0  0  0  0  0  0
   -0.9808   -1.1263    0.0000 C   0  0  0  0  0  0  0  0  0
   -1.6953   -0.7138    0.0000 C   0  0  0  0  0  0  0  0  0
   -2.4097   -1.1263    0.0000 N   0  0  0  0  0  0  0  0  0
   -3.1242   -0.7138    0.0000 C   0  0  0  0  0  0  0  0  0
   -2.4097   -1.9513    0.0000 C   0  0  0  0  0  0  0  0  0
    0.4482    0.5237    0.0000 C   0  0  0  0  0  0  0  0  0
    0.4482    1.3487    0.0000 C   0  0  0  0  0  0  0  0  0
    1.1626    1.7612    0.0000 C   0  0  0  0  0  0  0  0  0
    1.8771    1.3487    0.0000 C   0  0  0  0  0  0  0  0  0
    2.5916    1.7612    0.0000 F   0  0  0  0  0  0  0  0  0
    1.8771    0.5237    0.0000 C   0  0  0  0  0  0  0  0  0
    1.1626    0.1112    0.0000 C   0  0  0  0  0  0  0  0  0
    1.1626   -0.7138    0.0000 N   0  0  0  0  0  0  0  0  0
  1  2  1  0  0  0  0
  1 12  1  0  0  0  0
  2  3  4  0  0  0  0
  2  7  4  0  0  0  0
  3  4  4  0  0  0  0
  4  5  4  0  0  0  0
  5  6  4  0  0  0  0
  6  7  4  0  0  0  0
  7  8  1  0  0  0  0
  8  9  1  0  0  0  0
  9 10  1  0  0  0  0
  9 11  1  0  0  0  0
 12 13  4  0  0  0  0
 12 18  4  0  0  0  0
 13 14  4  0  0  0  0
 14 15  4  0  0  0  0
 15 16  1  0  0  0  0
 15 17  4  0  0  0  0
 17 18  4  0  0  0  0
 18 19  1  0  0  0  0
M  END
>  <Name_Molregno>
320276

>  <Dopamine transporter>
5

>  <Norepinephrine transporter>
6.85

>  <Serotonin transporter>
8.84

$$$$
320351
  Marvin  02231216192D 0   1.00000     0.00000     0

 19 20  0  0  0  0  0  0  0  0999 V2000
   -0.0683    0.1405    0.0000 S   0  0  0  0  0  0  0  0  0
   -0.0683   -0.6845    0.0000 C   0  0  0  0  0  0  0  0  0
    0.6462   -1.0970    0.0000 C   0  0  0  0  0  0  0  0  0
    0.6462   -1.9220    0.0000 C   0  0  0  0  0  0  0  0  0
   -0.0683   -2.3345    0.0000 C   0  0  0  0  0  0  0  0  0
   -0.7828   -1.9220    0.0000 C   0  0  0  0  0  0  0  0  0
   -0.7828   -1.0970    0.0000 C   0  0  0  0  0  0  0  0  0
   -1.4973   -0.6845    0.0000 C   0  0  0  0  0  0  0  0  0
   -2.2117   -1.0970    0.0000 N   0  0  0  0  0  0  0  0  0
   -2.9262   -0.6845    0.0000 C   0  0  0  0  0  0  0  0  0
   -3.6407   -1.0970    0.0000 C   0  0  0  0  0  0  0  0  0
    0.6462    0.5530    0.0000 C   0  0  0  0  0  0  0  0  0
    0.6462    1.3780    0.0000 C   0  0  0  0  0  0  0  0  0
    1.3606    1.7905    0.0000 C   0  0  0  0  0  0  0  0  0
    2.0751    1.3780    0.0000 C   0  0  0  0  0  0  0  0  0
    2.0751    0.5530    0.0000 C   0  0  0  0  0  0  0  0  0
    1.3606    0.1405    0.0000 C   0  0  0  0  0  0  0  0  0
    1.3606   -0.6845    0.0000 N   0  0  0  0  0  0  0  0  0
    2.7896    1.7905    0.0000 C   0  0  0  0  0  0  0  0  0
  1  2  1  0  0  0  0
  1 12  1  0  0  0  0
  2  3  4  0  0  0  0
  2  7  4  0  0  0  0
  3  4  4  0  0  0  0
  4  5  4  0  0  0  0
  5  6  4  0  0  0  0
  6  7  4  0  0  0  0
  7  8  1  0  0  0  0
  8  9  1  0  0  0  0
  9 10  1  0  0  0  0
 10 11  1  0  0  0  0
 12 13  4  0  0  0  0
 12 17  4  0  0  0  0
 13 14  4  0  0  0  0
 14 15  4  0  0  0  0
 15 16  4  0  0  0  0
 15 19  1  0  0  0  0
 16 17  4  0  0  0  0
 17 18  1  0  0  0  0
M  END
>  <Name_Molregno>
320351

>  <Dopamine transporter>
5.67

>  <Norepinephrine transporter>
5.12

>  <Serotonin transporter>
7.15

$$$$
320383
  Marvin  02231216192D 0   1.00000     0.00000     0

 20 21  0  0  0  0  0  0  0  0999 V2000
   -0.3516   -0.6640    0.0000 S   0  0  0  0  0  0  0  0  0
   -0.3516    0.1610    0.0000 C   0  0  0  0  0  0  0  0  0
   -1.0660    0.5735    0.0000 C   0  0  0  0  0  0  0  0  0
   -1.0660    1.3985    0.0000 C   0  0  0  0  0  0  0  0  0
   -0.3516    1.8110    0.0000 C   0  0  0  0  0  0  0  0  0
    0.3629    1.3985    0.0000 C   0  0  0  0  0  0  0  0  0
    0.3629    0.5735    0.0000 C   0  0  0  0  0  0  0  0  0
    1.0774    0.1610    0.0000 C   0  0  0  0  0  0  0  0  0
    1.7918    0.5735    0.0000 N   0  0  0  0  0  0  0  0  0
    2.5063    0.1610    0.0000 C   0  0  0  0  0  0  0  0  0
    3.2208    0.5735    0.0000 C   0  0  0  0  0  0  0  0  0
    3.9353    0.1610    0.0000 F   0  0  0  0  0  0  0  0  0
   -1.0660   -1.0765    0.0000 C   0  0  0  0  0  0  0  0  0
   -1.0660   -1.9015    0.0000 C   0  0  0  0  0  0  0  0  0
   -1.7805   -2.3140    0.0000 C   0  0  0  0  0  0  0  0  0
   -2.4950   -1.9015    0.0000 C   0  0  0  0  0  0  0  0  0
   -2.4950   -1.0765    0.0000 C   0  0  0  0  0  0  0  0  0
   -1.7805   -0.6640    0.0000 C   0  0  0  0  0  0  0  0  0
   -1.7805    0.1610    0.0000 N   0  0  0  0  0  0  0  0  0
   -3.2095   -2.3140    0.0000 C   0  0  0  0  0  0  0  0  0
  1  2  1  0  0  0  0
  1 13  1  0  0  0  0
  2  3  4  0  0  0  0
  2  7  4  0  0  0  0
  3  4  4  0  0  0  0
  4  5  4  0  0  0  0
  5  6  4  0  0  0  0
  6  7  4  0  0  0  0
  7  8  1  0  0  0  0
  8  9  1  0  0  0  0
  9 10  1  0  0  0  0
 10 11  1  0  0  0  0
 11 12  1  0  0  0  0
 13 14  4  0  0  0  0
 13 18  4  0  0  0  0
 14 15  4  0  0  0  0
 15 16  4  0  0  0  0
 16 17  4  0  0  0  0
 16 20  1  0  0  0  0
 17 18  4  0  0  0  0
 18 19  1  0  0  0  0
M  END
>  <Name_Molregno>
320383

>  <Dopamine transporter>
5.35

>  <Norepinephrine transporter>
5.41

>  <Serotonin transporter>
7.15

$$$$
320472
  Marvin  02231216192D 0   1.00000     0.00000     0

 20 21  0  0  0  0  0  0  0  0999 V2000
   -0.3516   -0.6640    0.0000 S   0  0  0  0  0  0  0  0  0
   -0.3516    0.1610    0.0000 C   0  0  0  0  0  0  0  0  0
   -1.0660    0.5735    0.0000 C   0  0  0  0  0  0  0  0  0
   -1.0660    1.3985    0.0000 C   0  0  0  0  0  0  0  0  0
   -0.3516    1.8110    0.0000 C   0  0  0  0  0  0  0  0  0
    0.3629    1.3985    0.0000 C   0  0  0  0  0  0  0  0  0
    0.3629    0.5735    0.0000 C   0  0  0  0  0  0  0  0  0
    1.0774    0.1610    0.0000 C   0  0  0  0  0  0  0  0  0
    1.7918    0.5735    0.0000 N   0  0  0  0  0  0  0  0  0
    2.5063    0.1610    0.0000 C   0  0  0  0  0  0  0  0  0
    3.2208    0.5735    0.0000 C   0  0  0  0  0  0  0  0  0
    3.9353    0.1610    0.0000 C   0  0  0  0  0  0  0  0  0
   -1.0660   -1.0765    0.0000 C   0  0  0  0  0  0  0  0  0
   -1.0660   -1.9015    0.0000 C   0  0  0  0  0  0  0  0  0
   -1.7805   -2.3140    0.0000 C   0  0  0  0  0  0  0  0  0
   -2.4950   -1.9015    0.0000 C   0  0  0  0  0  0  0  0  0
   -2.4950   -1.0765    0.0000 C   0  0  0  0  0  0  0  0  0
   -1.7805   -0.6640    0.0000 C   0  0  0  0  0  0  0  0  0
   -1.7805    0.1610    0.0000 N   0  0  0  0  0  0  0  0  0
   -3.2095   -2.3140    0.0000 C   0  0  0  0  0  0  0  0  0
  1  2  1  0  0  0  0
  1 13  1  0  0  0  0
  2  3  4  0  0  0  0
  2  7  4  0  0  0  0
  3  4  4  0  0  0  0
  4  5  4  0  0  0  0
  5  6  4  0  0  0  0
  6  7  4  0  0  0  0
  7  8  1  0  0  0  0
  8  9  1  0  0  0  0
  9 10  1  0  0  0  0
 10 11  1  0  0  0  0
 11 12  2  0  0  0  0
 13 14  4  0  0  0  0
 13 18  4  0  0  0  0
 14 15  4  0  0  0  0
 15 16  4  0  0  0  0
 16 17  4  0  0  0  0
 16 20  1  0  0  0  0
 17 18  4  0  0  0  0
 18 19  1  0  0  0  0
M  END
>  <Name_Molregno>
320472

>  <Dopamine transporter>
5.54

>  <Norepinephrine transporter>
5.42

>  <Serotonin transporter>
7.09

$$$$
320566
  Marvin  02231216192D 0   1.00000     0.00000     0

 17 18  0  0  0  0  0  0  0  0999 V2000
   -0.8288   -0.0462    0.0000 S   0  0  0  0  0  0  0  0  0
   -0.8288   -0.8712    0.0000 C   0  0  0  0  0  0  0  0  0
   -0.1143   -1.2837    0.0000 C   0  0  0  0  0  0  0  0  0
   -0.1143   -2.1087    0.0000 C   0  0  0  0  0  0  0  0  0
   -0.8288   -2.5212    0.0000 C   0  0  0  0  0  0  0  0  0
   -1.5433   -2.1087    0.0000 C   0  0  0  0  0  0  0  0  0
   -1.5433   -1.2837    0.0000 C   0  0  0  0  0  0  0  0  0
   -2.2577   -0.8712    0.0000 C   0  0  0  0  0  0  0  0  0
   -2.9722   -1.2837    0.0000 N   0  0  0  0  0  0  0  0  0
   -0.1143    0.3663    0.0000 C   0  0  0  0  0  0  0  0  0
   -0.1143    1.1913    0.0000 C   0  0  0  0  0  0  0  0  0
    0.6001    1.6038    0.0000 C   0  0  0  0  0  0  0  0  0
    1.3146    1.1913    0.0000 C   0  0  0  0  0  0  0  0  0
    1.3146    0.3663    0.0000 C   0  0  0  0  0  0  0  0  0
    0.6001   -0.0462    0.0000 C   0  0  0  0  0  0  0  0  0
    0.6001   -0.8712    0.0000 N   0  0  0  0  0  0  0  0  0
    2.0291    1.6038    0.0000 C   0  0  0  0  0  0  0  0  0
  1  2  1  0  0  0  0
  1 10  1  0  0  0  0
  2  3  4  0  0  0  0
  2  7  4  0  0  0  0
  3  4  4  0  0  0  0
  4  5  4  0  0  0  0
  5  6  4  0  0  0  0
  6  7  4  0  0  0  0
  7  8  1  0  0  0  0
  8  9  1  0  0  0  0
 10 11  4  0  0  0  0
 10 15  4  0  0  0  0
 11 12  4  0  0  0  0
 12 13  4  0  0  0  0
 13 14  4  0  0  0  0
 13 17  1  0  0  0  0
 14 15  4  0  0  0  0
 15 16  1  0  0  0  0
M  END
>  <Name_Molregno>
320566

>  <Dopamine transporter>
5.28

>  <Norepinephrine transporter>
5.35

>  <Serotonin transporter>
7.52

$$$$
320593
  Marvin  02231216192D 0   1.00000     0.00000     0

 20 21  0  0  0  0  0  0  0  0999 V2000
   -0.2064   -0.0878    0.0000 S   0  0  0  0  0  0  0  0  0
   -0.2064   -0.9128    0.0000 C   0  0  0  0  0  0  0  0  0
    0.5080   -1.3253    0.0000 C   0  0  0  0  0  0  0  0  0
    0.5080   -2.1503    0.0000 C   0  0  0  0  0  0  0  0  0
   -0.2064   -2.5628    0.0000 C   0  0  0  0  0  0  0  0  0
   -0.9209   -2.1503    0.0000 C   0  0  0  0  0  0  0  0  0
   -0.9209   -1.3253    0.0000 C   0  0  0  0  0  0  0  0  0
   -1.6354   -0.9128    0.0000 C   0  0  0  0  0  0  0  0  0
   -2.3499   -1.3253    0.0000 N   0  0  0  0  0  0  0  0  0
   -3.0643   -0.9128    0.0000 C   0  0  0  0  0  0  0  0  0
   -2.3499   -2.1503    0.0000 C   0  0  0  0  0  0  0  0  0
    0.5080    0.3247    0.0000 C   0  0  0  0  0  0  0  0  0
    0.5080    1.1497    0.0000 C   0  0  0  0  0  0  0  0  0
    1.2225    1.5622    0.0000 C   0  0  0  0  0  0  0  0  0
    1.2225    2.3872    0.0000 F   0  0  0  0  0  0  0  0  0
    1.9370    1.1497    0.0000 C   0  0  0  0  0  0  0  0  0
    1.9370    0.3247    0.0000 C   0  0  0  0  0  0  0  0  0
    1.2225   -0.0878    0.0000 C   0  0  0  0  0  0  0  0  0
    1.2225   -0.9128    0.0000 N   0  0  0  0  0  0  0  0  0
    2.6514    1.5622    0.0000 C   0  0  0  0  0  0  0  0  0
  1  2  1  0  0  0  0
  1 12  1  0  0  0  0
  2  3  4  0  0  0  0
  2  7  4  0  0  0  0
  3  4  4  0  0  0  0
  4  5  4  0  0  0  0
  5  6  4  0  0  0  0
  6  7  4  0  0  0  0
  7  8  1  0  0  0  0
  8  9  1  0  0  0  0
  9 10  1  0  0  0  0
  9 11  1  0  0  0  0
 12 13  4  0  0  0  0
 12 18  4  0  0  0  0
 13 14  4  0  0  0  0
 14 15  1  0  0  0  0
 14 16  4  0  0  0  0
 16 17  4  0  0  0  0
 16 20  1  0  0  0  0
 17 18  4  0  0  0  0
 18 19  1  0  0  0  0
M  END
>  <Name_Molregno>
320593

>  <Dopamine transporter>
5

>  <Norepinephrine transporter>
5.15

>  <Serotonin transporter>
6.75

$$$$
320665
  Marvin  02231216192D 0   1.00000     0.00000     0

 20 21  0  0  0  0  0  0  0  0999 V2000
   -0.3516   -0.6640    0.0000 S   0  0  0  0  0  0  0  0  0
   -0.3516    0.1610    0.0000 C   0  0  0  0  0  0  0  0  0
   -1.0660    0.5735    0.0000 C   0  0  0  0  0  0  0  0  0
   -1.0660    1.3985    0.0000 C   0  0  0  0  0  0  0  0  0
   -0.3516    1.8110    0.0000 C   0  0  0  0  0  0  0  0  0
    0.3629    1.3985    0.0000 C   0  0  0  0  0  0  0  0  0
    0.3629    0.5735    0.0000 C   0  0  0  0  0  0  0  0  0
    1.0774    0.1610    0.0000 C   0  0  0  0  0  0  0  0  0
    1.7918    0.5735    0.0000 N   0  0  0  0  0  0  0  0  0
    2.5063    0.1610    0.0000 C   0  0  0  0  0  0  0  0  0
    3.2208    0.5735    0.0000 C   0  0  0  0  0  0  0  0  0
    3.9353    0.1610    0.0000 C   0  0  0  0  0  0  0  0  0
   -1.0660   -1.0765    0.0000 C   0  0  0  0  0  0  0  0  0
   -1.0660   -1.9015    0.0000 C   0  0  0  0  0  0  0  0  0
   -1.7805   -2.3140    0.0000 C   0  0  0  0  0  0  0  0  0
   -2.4950   -1.9015    0.0000 C   0  0  0  0  0  0  0  0  0
   -2.4950   -1.0765    0.0000 C   0  0  0  0  0  0  0  0  0
   -1.7805   -0.6640    0.0000 C   0  0  0  0  0  0  0  0  0
   -1.7805    0.1610    0.0000 N   0  0  0  0  0  0  0  0  0
   -3.2095   -2.3140    0.0000 C   0  0  0  0  0  0  0  0  0
  1  2  1  0  0  0  0
  1 13  1  0  0  0  0
  2  3  4  0  0  0  0
  2  7  4  0  0  0  0
  3  4  4  0  0  0  0
  4  5  4  0  0  0  0
  5  6  4  0  0  0  0
  6  7  4  0  0  0  0
  7  8  1  0  0  0  0
  8  9  1  0  0  0  0
  9 10  1  0  0  0  0
 10 11  1  0  0  0  0
 11 12  1  0  0  0  0
 13 14  4  0  0  0  0
 13 18  4  0  0  0  0
 14 15  4  0  0  0  0
 15 16  4  0  0  0  0
 16 17  4  0  0  0  0
 16 20  1  0  0  0  0
 17 18  4  0  0  0  0
 18 19  1  0  0  0  0
M  END
>  <Name_Molregno>
320665

>  <Dopamine transporter>
5.45

>  <Norepinephrine transporter>
5

>  <Serotonin transporter>
5.66

$$$$
320692
  Marvin  02231216192D 0   1.00000     0.00000     0

 21 22  0  0  0  0  0  0  0  0999 V2000
   -0.8045   -0.6203    0.0000 S   0  0  0  0  0  0  0  0  0
   -0.8045    0.2047    0.0000 C   0  0  0  0  0  0  0  0  0
   -1.5190    0.6172    0.0000 C   0  0  0  0  0  0  0  0  0
   -1.5190    1.4422    0.0000 C   0  0  0  0  0  0  0  0  0
   -0.8045    1.8547    0.0000 C   0  0  0  0  0  0  0  0  0
   -0.0900    1.4422    0.0000 C   0  0  0  0  0  0  0  0  0
   -0.0900    0.6172    0.0000 C   0  0  0  0  0  0  0  0  0
    0.6244    0.2047    0.0000 C   0  0  0  0  0  0  0  0  0
    1.3389    0.6172    0.0000 N   0  0  0  0  0  0  0  0  0
    2.0534    0.2047    0.0000 C   0  0  0  0  0  0  0  0  0
    2.7679    0.6172    0.0000 C   0  0  0  0  0  0  0  0  0
    3.4823    0.2047    0.0000 C   0  0  0  0  0  0  0  0  0
    4.1968    0.6172    0.0000 F   0  0  0  0  0  0  0  0  0
   -1.5190   -1.0328    0.0000 C   0  0  0  0  0  0  0  0  0
   -1.5190   -1.8578    0.0000 C   0  0  0  0  0  0  0  0  0
   -2.2334   -2.2703    0.0000 C   0  0  0  0  0  0  0  0  0
   -2.9479   -1.8578    0.0000 C   0  0  0  0  0  0  0  0  0
   -2.9479   -1.0328    0.0000 C   0  0  0  0  0  0  0  0  0
   -2.2334   -0.6203    0.0000 C   0  0  0  0  0  0  0  0  0
   -2.2334    0.2047    0.0000 N   0  0  0  0  0  0  0  0  0
   -3.6624   -2.2703    0.0000 C   0  0  0  0  0  0  0  0  0
  1  2  1  0  0  0  0
  1 14  1  0  0  0  0
  2  3  4  0  0  0  0
  2  7  4  0  0  0  0
  3  4  4  0  0  0  0
  4  5  4  0  0  0  0
  5  6  4  0  0  0  0
  6  7  4  0  0  0  0
  7  8  1  0  0  0  0
  8  9  1  0  0  0  0
  9 10  1  0  0  0  0
 10 11  1  0  0  0  0
 11 12  1  0  0  0  0
 12 13  1  0  0  0  0
 14 15  4  0  0  0  0
 14 19  4  0  0  0  0
 15 16  4  0  0  0  0
 16 17  4  0  0  0  0
 17 18  4  0  0  0  0
 17 21  1  0  0  0  0
 18 19  4  0  0  0  0
 19 20  1  0  0  0  0
M  END
>  <Name_Molregno>
320692

>  <Dopamine transporter>
5

>  <Norepinephrine transporter>
5.36

>  <Serotonin transporter>
6.29

$$$$
328996
  Marvin  02231216192D 0   1.00000     0.00000     0

 18 20  0  0  1  0  0  0  0  0999 V2000
   -0.3874   -0.0884    0.0000 N   0  0  0  0  0  0  0  0  0
   -0.8723    0.5790    0.0000 C   0  0  0  0  0  0  0  0  0
   -0.3874    1.2465    0.0000 C   0  0  0  0  0  0  0  0  0
    0.3972    0.9915    0.0000 C   0  0  0  0  0  0  0  0  0
    1.1117    1.4040    0.0000 C   0  0  0  0  0  0  0  0  0
    1.8262    0.9915    0.0000 C   0  0  0  0  0  0  0  0  0
    1.8262    0.1665    0.0000 C   0  0  0  0  0  0  0  0  0
    1.1117   -0.2460    0.0000 C   0  0  0  0  0  0  0  0  0
    0.3972    0.1665    0.0000 C   0  0  0  0  0  0  0  0  0
    2.5406    1.4040    0.0000 C   0  0  0  0  0  0  0  0  0
    3.2551    1.8165    0.0000 N   0  0  0  0  0  0  0  0  0
   -0.6423    2.0311    0.0000 C   0  0  0  0  0  0  0  0  0
   -1.2554    2.5831    0.0000 C   0  0  0  0  0  0  0  0  0
   -0.4708    2.8381    0.0000 C   0  0  0  0  0  0  0  0  0
    0.0812    3.4511    0.0000 C   0  0  0  0  0  0  0  0  0
    0.8882    3.2796    0.0000 N   0  0  0  0  0  0  0  0  0
    1.4402    3.8927    0.0000 C   0  0  0  0  0  0  0  0  0
    1.1431    2.4950    0.0000 C   0  0  0  0  0  0  0  0  0
  1  2  4  0  0  0  0
  1  9  4  0  0  0  0
  2  3  4  0  0  0  0
  3  4  4  0  0  0  0
  3 12  1  0  0  0  0
  4  5  4  0  0  0  0
  4  9  4  0  0  0  0
  5  6  4  0  0  0  0
  6  7  4  0  0  0  0
  6 10  1  0  0  0  0
  7  8  4  0  0  0  0
  8  9  4  0  0  0  0
 10 11  3  0  0  0  0
 12 13  1  0  0  0  0
 12 14  1  0  0  0  0
 13 14  1  0  0  0  0
 14 15  1  0  0  0  0
 15 16  1  0  0  0  0
 16 17  1  0  0  0  0
 16 18  1  0  0  0  0
M  STY  1   1 DAT
M  SAL   1  1   1
M  SDT   1 MRV_IMPLICIT_H                                        
M  SDD   1     0.0000    0.0000    DR    ALL  0       0  
M  SED   1 IMPL_H1
M  END
>  <Name_Molregno>
328996

>  <Dopamine transporter>
5.68

>  <Norepinephrine transporter>
5.34

>  <Serotonin transporter>
8.53

$$$$
329873
  Marvin  02231216192D 0   1.00000     0.00000     0

 22 24  0  0  1  0  0  0  0  0999 V2000
   -0.4851    0.1658    0.0000 O   0  0  0  0  0  0  0  0  0
   -0.4851   -0.6592    0.0000 C   0  0  0  0  0  0  0  0  0
   -1.1996   -1.0717    0.0000 N   0  0  0  0  0  0  0  0  0
   -1.1996   -1.8967    0.0000 C   0  0  0  0  0  0  0  0  0
   -0.4851   -2.3092    0.0000 C   0  0  0  0  0  0  0  0  0
    0.2293   -1.8967    0.0000 C   0  0  0  0  0  0  0  0  0
    0.2293   -1.0717    0.0000 C   0  0  0  0  0  0  0  0  0
    0.9438   -0.6592    0.0000 C   0  0  0  0  0  0  0  0  0
    1.6583   -1.0717    0.0000 C   0  0  0  0  0  0  0  0  0
    2.3727   -0.6592    0.0000 C   0  0  0  0  0  0  0  0  0
    3.0872   -1.0717    0.0000 N   0  0  0  0  0  0  0  0  0
    3.8017   -0.6592    0.0000 C   0  0  0  0  0  0  0  0  0
   -0.4851   -3.1342    0.0000 C   0  0  0  0  0  0  0  0  0
   -1.1996   -3.5467    0.0000 C   0  0  0  0  0  0  0  0  0
   -1.9141   -3.1342    0.0000 C   0  0  0  0  0  0  0  0  0
   -1.9141   -2.3092    0.0000 C   0  0  0  0  0  0  0  0  0
   -1.9141   -0.6592    0.0000 C   0  0  0  0  0  0  0  0  0
   -2.6285   -1.0717    0.0000 C   0  0  0  0  0  0  0  0  0
   -3.3430   -0.6592    0.0000 C   0  0  0  0  0  0  0  0  0
   -3.3430    0.1658    0.0000 C   0  0  0  0  0  0  0  0  0
   -2.6285    0.5783    0.0000 C   0  0  0  0  0  0  0  0  0
   -1.9141    0.1658    0.0000 C   0  0  0  0  0  0  0  0  0
  1  2  2  0  0  0  0
  2  3  1  0  0  0  0
  2  7  1  0  0  0  0
  3  4  1  0  0  0  0
  3 17  1  0  0  0  0
  4  5  4  0  0  0  0
  4 16  4  0  0  0  0
  5  6  1  0  0  0  0
  5 13  4  0  0  0  0
  6  7  1  0  0  0  0
  7  8  1  0  0  0  0
  8  9  1  0  0  0  0
  9 10  1  0  0  0  0
 10 11  1  0  0  0  0
 11 12  1  0  0  0  0
 13 14  4  0  0  0  0
 14 15  4  0  0  0  0
 15 16  4  0  0  0  0
 17 18  4  0  0  0  0
 17 22  4  0  0  0  0
 18 19  4  0  0  0  0
 19 20  4  0  0  0  0
 20 21  4  0  0  0  0
 21 22  4  0  0  0  0
M  END
>  <Name_Molregno>
329873

>  <Dopamine transporter>
6.7

>  <Norepinephrine transporter>
7.61

>  <Serotonin transporter>
7

$$$$
329874
  Marvin  02231216192D 0   1.00000     0.00000     0

 23 25  0  0  1  0  0  0  0  0999 V2000
    0.0006    0.0358    0.0000 O   0  0  0  0  0  0  0  0  0
    0.0006   -0.7892    0.0000 C   0  0  0  0  0  0  0  0  0
   -0.7139   -1.2017    0.0000 N   0  0  0  0  0  0  0  0  0
   -0.7139   -2.0267    0.0000 C   0  0  0  0  0  0  0  0  0
    0.0006   -2.4392    0.0000 C   0  0  0  0  0  0  0  0  0
    0.7151   -2.0267    0.0000 C   0  0  0  0  0  0  0  0  0
    0.7151   -1.2017    0.0000 C   0  0  0  0  0  0  0  0  0
    1.4295   -0.7892    0.0000 C   0  0  0  0  0  0  0  0  0
    2.1440   -1.2017    0.0000 C   0  0  0  0  0  0  0  0  0
    2.8585   -0.7892    0.0000 C   0  0  0  0  0  0  0  0  0
    3.5729   -1.2017    0.0000 C   0  0  0  0  0  0  0  0  0
    4.2874   -0.7892    0.0000 N   0  0  0  0  0  0  0  0  0
    5.0019   -1.2017    0.0000 C   0  0  0  0  0  0  0  0  0
    0.0006   -3.2642    0.0000 C   0  0  0  0  0  0  0  0  0
   -0.7139   -3.6767    0.0000 C   0  0  0  0  0  0  0  0  0
   -1.4284   -3.2642    0.0000 C   0  0  0  0  0  0  0  0  0
   -1.4284   -2.4392    0.0000 C   0  0  0  0  0  0  0  0  0
   -1.4284   -0.7892    0.0000 C   0  0  0  0  0  0  0  0  0
   -2.1428   -1.2017    0.0000 C   0  0  0  0  0  0  0  0  0
   -2.8573   -0.7892    0.0000 C   0  0  0  0  0  0  0  0  0
   -2.8573    0.0358    0.0000 C   0  0  0  0  0  0  0  0  0
   -2.1428    0.4483    0.0000 C   0  0  0  0  0  0  0  0  0
   -1.4284    0.0358    0.0000 C   0  0  0  0  0  0  0  0  0
  1  2  2  0  0  0  0
  2  3  1  0  0  0  0
  2  7  1  0  0  0  0
  3  4  1  0  0  0  0
  3 18  1  0  0  0  0
  4  5  4  0  0  0  0
  4 17  4  0  0  0  0
  5  6  1  0  0  0  0
  5 14  4  0  0  0  0
  6  7  1  0  0  0  0
  7  8  1  0  0  0  0
  8  9  1  0  0  0  0
  9 10  1  0  0  0  0
 10 11  1  0  0  0  0
 11 12  1  0  0  0  0
 12 13  1  0  0  0  0
 14 15  4  0  0  0  0
 15 16  4  0  0  0  0
 16 17  4  0  0  0  0
 18 19  4  0  0  0  0
 18 23  4  0  0  0  0
 19 20  4  0  0  0  0
 20 21  4  0  0  0  0
 21 22  4  0  0  0  0
 22 23  4  0  0  0  0
M  END
>  <Name_Molregno>
329874

>  <Dopamine transporter>
6.7

>  <Norepinephrine transporter>
6.7

>  <Serotonin transporter>
7

$$$$
329890
  Marvin  02231216192D 0   1.00000     0.00000     0

 23 25  0  0  1  0  0  0  0  0999 V2000
    0.9161    1.3637    0.0000 F   0  0  0  0  0  0  0  0  0
    0.9161    0.5387    0.0000 C   0  0  0  0  0  0  0  0  0
    1.6305    0.1262    0.0000 C   0  0  0  0  0  0  0  0  0
    1.6305   -0.6988    0.0000 C   0  0  0  0  0  0  0  0  0
    2.3450   -1.1113    0.0000 N   0  0  0  0  0  0  0  0  0
    2.3450   -1.9363    0.0000 C   0  0  0  0  0  0  0  0  0
    3.0595   -2.3488    0.0000 C   0  0  0  0  0  0  0  0  0
    3.7739   -1.9363    0.0000 C   0  0  0  0  0  0  0  0  0
    3.7739   -1.1113    0.0000 C   0  0  0  0  0  0  0  0  0
    4.4884   -0.6988    0.0000 C   0  0  0  0  0  0  0  0  0
    5.2029   -1.1113    0.0000 C   0  0  0  0  0  0  0  0  0
    5.9173   -0.6988    0.0000 C   0  0  0  0  0  0  0  0  0
    6.6318   -1.1113    0.0000 N   0  0  0  0  0  0  0  0  0
    7.3463   -0.6988    0.0000 C   0  0  0  0  0  0  0  0  0
    3.0595   -0.6988    0.0000 C   0  0  0  0  0  0  0  0  0
    3.0595    0.1262    0.0000 O   0  0  0  0  0  0  0  0  0
    3.0595   -3.1738    0.0000 C   0  0  0  0  0  0  0  0  0
    2.3450   -3.5863    0.0000 C   0  0  0  0  0  0  0  0  0
    1.6305   -3.1738    0.0000 C   0  0  0  0  0  0  0  0  0
    1.6305   -2.3488    0.0000 C   0  0  0  0  0  0  0  0  0
    0.9161   -1.1113    0.0000 C   0  0  0  0  0  0  0  0  0
    0.2016   -0.6988    0.0000 C   0  0  0  0  0  0  0  0  0
    0.2016    0.1262    0.0000 C   0  0  0  0  0  0  0  0  0
  1  2  1  0  0  0  0
  2  3  4  0  0  0  0
  2 23  4  0  0  0  0
  3  4  4  0  0  0  0
  4  5  1  0  0  0  0
  4 21  4  0  0  0  0
  5  6  1  0  0  0  0
  5 15  1  0  0  0  0
  6  7  4  0  0  0  0
  6 20  4  0  0  0  0
  7  8  1  0  0  0  0
  7 17  4  0  0  0  0
  8  9  1  0  0  0  0
  9 10  1  0  0  0  0
  9 15  1  0  0  0  0
 10 11  1  0  0  0  0
 11 12  1  0  0  0  0
 12 13  1  0  0  0  0
 13 14  1  0  0  0  0
 15 16  2  0  0  0  0
 17 18  4  0  0  0  0
 18 19  4  0  0  0  0
 19 20  4  0  0  0  0
 21 22  4  0  0  0  0
 22 23  4  0  0  0  0
M  END
>  <Name_Molregno>
329890

>  <Dopamine transporter>
6.7

>  <Norepinephrine transporter>
7.74

>  <Serotonin transporter>
7

$$$$
329891
  Marvin  02231216192D 0   1.00000     0.00000     0

 23 25  0  0  1  0  0  0  0  0999 V2000
    0.9161    1.3637    0.0000 Cl  0  0  0  0  0  0  0  0  0
    0.9161    0.5387    0.0000 C   0  0  0  0  0  0  0  0  0
    1.6305    0.1262    0.0000 C   0  0  0  0  0  0  0  0  0
    1.6305   -0.6988    0.0000 C   0  0  0  0  0  0  0  0  0
    2.3450   -1.1113    0.0000 N   0  0  0  0  0  0  0  0  0
    2.3450   -1.9363    0.0000 C   0  0  0  0  0  0  0  0  0
    3.0595   -2.3488    0.0000 C   0  0  0  0  0  0  0  0  0
    3.7739   -1.9363    0.0000 C   0  0  0  0  0  0  0  0  0
    3.7739   -1.1113    0.0000 C   0  0  0  0  0  0  0  0  0
    4.4884   -0.6988    0.0000 C   0  0  0  0  0  0  0  0  0
    5.2029   -1.1113    0.0000 C   0  0  0  0  0  0  0  0  0
    5.9173   -0.6988    0.0000 C   0  0  0  0  0  0  0  0  0
    6.6318   -1.1113    0.0000 N   0  0  0  0  0  0  0  0  0
    7.3463   -0.6988    0.0000 C   0  0  0  0  0  0  0  0  0
    3.0595   -0.6988    0.0000 C   0  0  0  0  0  0  0  0  0
    3.0595    0.1262    0.0000 O   0  0  0  0  0  0  0  0  0
    3.0595   -3.1738    0.0000 C   0  0  0  0  0  0  0  0  0
    2.3450   -3.5863    0.0000 C   0  0  0  0  0  0  0  0  0
    1.6305   -3.1738    0.0000 C   0  0  0  0  0  0  0  0  0
    1.6305   -2.3488    0.0000 C   0  0  0  0  0  0  0  0  0
    0.9161   -1.1113    0.0000 C   0  0  0  0  0  0  0  0  0
    0.2016   -0.6988    0.0000 C   0  0  0  0  0  0  0  0  0
    0.2016    0.1262    0.0000 C   0  0  0  0  0  0  0  0  0
  1  2  1  0  0  0  0
  2  3  4  0  0  0  0
  2 23  4  0  0  0  0
  3  4  4  0  0  0  0
  4  5  1  0  0  0  0
  4 21  4  0  0  0  0
  5  6  1  0  0  0  0
  5 15  1  0  0  0  0
  6  7  4  0  0  0  0
  6 20  4  0  0  0  0
  7  8  1  0  0  0  0
  7 17  4  0  0  0  0
  8  9  1  0  0  0  0
  9 10  1  0  0  0  0
  9 15  1  0  0  0  0
 10 11  1  0  0  0  0
 11 12  1  0  0  0  0
 12 13  1  0  0  0  0
 13 14  1  0  0  0  0
 15 16  2  0  0  0  0
 17 18  4  0  0  0  0
 18 19  4  0  0  0  0
 19 20  4  0  0  0  0
 21 22  4  0  0  0  0
 22 23  4  0  0  0  0
M  END
>  <Name_Molregno>
329891

>  <Dopamine transporter>
6.7

>  <Norepinephrine transporter>
7.1

>  <Serotonin transporter>
7

$$$$
329913
  Marvin  02231216192D 0   1.00000     0.00000     0

 21 23  0  0  1  0  0  0  0  0999 V2000
   -0.9301   -1.7545    0.0000 O   0  0  0  0  0  0  0  0  0
   -0.2157   -1.3420    0.0000 C   0  0  0  0  0  0  0  0  0
    0.4988   -1.7545    0.0000 N   0  0  0  0  0  0  0  0  0
    1.2133   -1.3420    0.0000 C   0  0  0  0  0  0  0  0  0
    1.2133   -0.5170    0.0000 C   0  0  0  0  0  0  0  0  0
    0.4988   -0.1045    0.0000 C   0  0  0  0  0  0  0  0  0
   -0.2157   -0.5170    0.0000 C   0  0  0  0  0  0  0  0  0
   -0.9301   -0.1045    0.0000 C   0  0  0  0  0  0  0  0  0
   -0.9301    0.7205    0.0000 C   0  0  0  0  0  0  0  0  0
   -1.6446    1.1330    0.0000 N   0  0  0  0  0  0  0  0  0
   -1.6446    1.9580    0.0000 C   0  0  0  0  0  0  0  0  0
    1.9278   -0.1045    0.0000 C   0  0  0  0  0  0  0  0  0
    2.6422   -0.5170    0.0000 C   0  0  0  0  0  0  0  0  0
    2.6422   -1.3420    0.0000 C   0  0  0  0  0  0  0  0  0
    1.9278   -1.7545    0.0000 C   0  0  0  0  0  0  0  0  0
    0.4988   -2.5795    0.0000 C   0  0  0  0  0  0  0  0  0
    1.2133   -2.9920    0.0000 C   0  0  0  0  0  0  0  0  0
    1.2133   -3.8170    0.0000 C   0  0  0  0  0  0  0  0  0
    0.4988   -4.2295    0.0000 C   0  0  0  0  0  0  0  0  0
   -0.2157   -3.8170    0.0000 C   0  0  0  0  0  0  0  0  0
   -0.2157   -2.9920    0.0000 C   0  0  0  0  0  0  0  0  0
  1  2  2  0  0  0  0
  2  3  1  0  0  0  0
  2  7  1  0  0  0  0
  3  4  1  0  0  0  0
  3 16  1  0  0  0  0
  4  5  4  0  0  0  0
  4 15  4  0  0  0  0
  5  6  1  0  0  0  0
  5 12  4  0  0  0  0
  6  7  1  0  0  0  0
  7  8  1  0  0  0  0
  8  9  1  0  0  0  0
  9 10  1  0  0  0  0
 10 11  1  0  0  0  0
 12 13  4  0  0  0  0
 13 14  4  0  0  0  0
 14 15  4  0  0  0  0
 16 17  4  0  0  0  0
 16 21  4  0  0  0  0
 17 18  4  0  0  0  0
 18 19  4  0  0  0  0
 19 20  4  0  0  0  0
 20 21  4  0  0  0  0
M  END
>  <Name_Molregno>
329913

>  <Dopamine transporter>
6.7

>  <Norepinephrine transporter>
7.35

>  <Serotonin transporter>
7

$$$$
330009
  Marvin  02231216192D 0   1.00000     0.00000     0

 26 28  0  0  1  0  0  0  0  0999 V2000
    0.9106   -1.6524    0.0000 O   0  0  0  0  0  0  0  0  0
    0.0861   -1.6812    0.0000 C   0  0  0  0  0  0  0  0  0
   -0.3511   -0.9815    0.0000 N   0  0  0  0  0  0  0  0  0
   -1.1756   -1.0103    0.0000 C   0  0  0  0  0  0  0  0  0
   -1.5629   -1.7388    0.0000 C   0  0  0  0  0  0  0  0  0
   -1.1258   -2.4384    0.0000 C   0  0  0  0  0  0  0  0  0
   -0.3013   -2.4096    0.0000 C   0  0  0  0  0  0  0  0  0
    0.4132   -2.8221    0.0000 C   0  0  0  0  0  0  0  0  0
    1.1277   -2.4096    0.0000 C   0  0  0  0  0  0  0  0  0
    1.8422   -2.8221    0.0000 C   0  0  0  0  0  0  0  0  0
    2.5566   -2.4096    0.0000 N   0  0  0  0  0  0  0  0  0
    3.2711   -2.8221    0.0000 C   0  0  0  0  0  0  0  0  0
   -0.2437   -3.2326    0.0000 C   0  0  0  0  0  0  0  0  0
    0.4978   -3.5943    0.0000 C   0  0  0  0  0  0  0  0  0
    0.5553   -4.4172    0.0000 C   0  0  0  0  0  0  0  0  0
   -2.3874   -1.7676    0.0000 C   0  0  0  0  0  0  0  0  0
   -2.8246   -1.0679    0.0000 C   0  0  0  0  0  0  0  0  0
   -2.4373   -0.3395    0.0000 C   0  0  0  0  0  0  0  0  0
   -1.6128   -0.3107    0.0000 C   0  0  0  0  0  0  0  0  0
    0.0362   -0.2531    0.0000 C   0  0  0  0  0  0  0  0  0
   -0.4010    0.4465    0.0000 C   0  0  0  0  0  0  0  0  0
   -0.0137    1.1750    0.0000 C   0  0  0  0  0  0  0  0  0
    0.8108    1.2038    0.0000 C   0  0  0  0  0  0  0  0  0
    1.2480    0.5041    0.0000 C   0  0  0  0  0  0  0  0  0
    0.8607   -0.2243    0.0000 C   0  0  0  0  0  0  0  0  0
    1.1981    1.9322    0.0000 C   0  0  0  0  0  0  0  0  0
  1  2  2  0  0  0  0
  2  3  1  0  0  0  0
  2  7  1  0  0  0  0
  3  4  1  0  0  0  0
  3 20  1  0  0  0  0
  4  5  4  0  0  0  0
  4 19  4  0  0  0  0
  5  6  1  0  0  0  0
  5 16  4  0  0  0  0
  6  7  1  0  0  0  0
  7  8  1  0  0  0  0
  7 13  1  0  0  0  0
  8  9  1  0  0  0  0
  9 10  1  0  0  0  0
 10 11  1  0  0  0  0
 11 12  1  0  0  0  0
 13 14  1  0  0  0  0
 14 15  1  0  0  0  0
 16 17  4  0  0  0  0
 17 18  4  0  0  0  0
 18 19  4  0  0  0  0
 20 21  4  0  0  0  0
 20 25  4  0  0  0  0
 21 22  4  0  0  0  0
 22 23  4  0  0  0  0
 23 24  4  0  0  0  0
 23 26  1  0  0  0  0
 24 25  4  0  0  0  0
M  END
>  <Name_Molregno>
330009

>  <Dopamine transporter>
6.7

>  <Norepinephrine transporter>
7.96

>  <Serotonin transporter>
6.8

$$$$
330010
  Marvin  02231216192D 0   1.00000     0.00000     0

 26 28  0  0  1  0  0  0  0  0999 V2000
   -2.0701   -0.8869    0.0000 O   0  0  0  0  0  0  0  0  0
   -1.2456   -0.9157    0.0000 C   0  0  0  0  0  0  0  0  0
   -0.8583   -1.6442    0.0000 N   0  0  0  0  0  0  0  0  0
   -0.0338   -1.6730    0.0000 C   0  0  0  0  0  0  0  0  0
    0.4034   -0.9733    0.0000 C   0  0  0  0  0  0  0  0  0
    0.0160   -0.2449    0.0000 C   0  0  0  0  0  0  0  0  0
   -0.8085   -0.2161    0.0000 C   0  0  0  0  0  0  0  0  0
   -1.4924    0.2452    0.0000 C   0  0  0  0  0  0  0  0  0
   -1.4349    1.0682    0.0000 C   0  0  0  0  0  0  0  0  0
   -2.2339   -0.1164    0.0000 C   0  0  0  0  0  0  0  0  0
   -0.8085    0.6089    0.0000 C   0  0  0  0  0  0  0  0  0
   -0.0940    1.0214    0.0000 C   0  0  0  0  0  0  0  0  0
    0.6205    0.6089    0.0000 C   0  0  0  0  0  0  0  0  0
    1.3350    1.0214    0.0000 N   0  0  0  0  0  0  0  0  0
    2.0494    0.6089    0.0000 C   0  0  0  0  0  0  0  0  0
    1.2279   -1.0021    0.0000 C   0  0  0  0  0  0  0  0  0
    1.6152   -1.7305    0.0000 C   0  0  0  0  0  0  0  0  0
    1.1780   -2.4302    0.0000 C   0  0  0  0  0  0  0  0  0
    0.3535   -2.4014    0.0000 C   0  0  0  0  0  0  0  0  0
   -1.2955   -2.3438    0.0000 C   0  0  0  0  0  0  0  0  0
   -0.9082   -3.0722    0.0000 C   0  0  0  0  0  0  0  0  0
   -1.3454   -3.7719    0.0000 C   0  0  0  0  0  0  0  0  0
   -2.1699   -3.7431    0.0000 C   0  0  0  0  0  0  0  0  0
   -2.5572   -3.0146    0.0000 C   0  0  0  0  0  0  0  0  0
   -2.1200   -2.3150    0.0000 C   0  0  0  0  0  0  0  0  0
   -2.6071   -4.4427    0.0000 C   0  0  0  0  0  0  0  0  0
  1  2  2  0  0  0  0
  2  3  1  0  0  0  0
  2  7  1  0  0  0  0
  3  4  1  0  0  0  0
  3 20  1  0  0  0  0
  4  5  4  0  0  0  0
  4 19  4  0  0  0  0
  5  6  1  0  0  0  0
  5 16  4  0  0  0  0
  6  7  1  0  0  0  0
  7  8  1  0  0  0  0
  7 11  1  0  0  0  0
  8  9  1  0  0  0  0
  8 10  1  0  0  0  0
 11 12  1  0  0  0  0
 12 13  1  0  0  0  0
 13 14  1  0  0  0  0
 14 15  1  0  0  0  0
 16 17  4  0  0  0  0
 17 18  4  0  0  0  0
 18 19  4  0  0  0  0
 20 21  4  0  0  0  0
 20 25  4  0  0  0  0
 21 22  4  0  0  0  0
 22 23  4  0  0  0  0
 23 24  4  0  0  0  0
 23 26  1  0  0  0  0
 24 25  4  0  0  0  0
M  END
>  <Name_Molregno>
330010

>  <Dopamine transporter>
6.7

>  <Norepinephrine transporter>
6.82

$$$$
330014
  Marvin  02231216192D 0   1.00000     0.00000     0

 27 29  0  0  1  0  0  0  0  0999 V2000
    0.6013   -0.4138    0.0000 O   0  0  0  0  0  0  0  0  0
    0.1641   -1.1134    0.0000 C   0  0  0  0  0  0  0  0  0
   -0.6604   -1.0846    0.0000 N   0  0  0  0  0  0  0  0  0
   -1.0976   -1.7843    0.0000 C   0  0  0  0  0  0  0  0  0
   -0.7102   -2.5127    0.0000 C   0  0  0  0  0  0  0  0  0
    0.1143   -2.5415    0.0000 C   0  0  0  0  0  0  0  0  0
    0.5514   -1.8419    0.0000 C   0  0  0  0  0  0  0  0  0
    1.2929   -1.4802    0.0000 C   0  0  0  0  0  0  0  0  0
    1.3505   -0.6572    0.0000 C   0  0  0  0  0  0  0  0  0
    2.0920   -0.2956    0.0000 C   0  0  0  0  0  0  0  0  0
    2.7759   -0.7569    0.0000 C   0  0  0  0  0  0  0  0  0
    1.2659   -2.2544    0.0000 C   0  0  0  0  0  0  0  0  0
    1.9804   -1.8419    0.0000 C   0  0  0  0  0  0  0  0  0
    2.6948   -2.2544    0.0000 C   0  0  0  0  0  0  0  0  0
    3.4093   -1.8419    0.0000 N   0  0  0  0  0  0  0  0  0
    4.1238   -2.2544    0.0000 C   0  0  0  0  0  0  0  0  0
   -1.1474   -3.2124    0.0000 C   0  0  0  0  0  0  0  0  0
   -1.9719   -3.1836    0.0000 C   0  0  0  0  0  0  0  0  0
   -2.3592   -2.4551    0.0000 C   0  0  0  0  0  0  0  0  0
   -1.9221   -1.7555    0.0000 C   0  0  0  0  0  0  0  0  0
   -1.0477   -0.3562    0.0000 C   0  0  0  0  0  0  0  0  0
   -1.8722   -0.3274    0.0000 C   0  0  0  0  0  0  0  0  0
   -2.2595    0.4010    0.0000 C   0  0  0  0  0  0  0  0  0
   -1.8223    1.1006    0.0000 C   0  0  0  0  0  0  0  0  0
   -0.9978    1.0719    0.0000 C   0  0  0  0  0  0  0  0  0
   -0.6105    0.3434    0.0000 C   0  0  0  0  0  0  0  0  0
   -2.2096    1.8291    0.0000 C   0  0  0  0  0  0  0  0  0
  1  2  2  0  0  0  0
  2  3  1  0  0  0  0
  2  7  1  0  0  0  0
  3  4  1  0  0  0  0
  3 21  1  0  0  0  0
  4  5  4  0  0  0  0
  4 20  4  0  0  0  0
  5  6  1  0  0  0  0
  5 17  4  0  0  0  0
  6  7  1  0  0  0  0
  7  8  1  0  0  0  0
  7 12  1  0  0  0  0
  8  9  1  0  0  0  0
  9 10  1  0  0  0  0
 10 11  1  0  0  0  0
 12 13  1  0  0  0  0
 13 14  1  0  0  0  0
 14 15  1  0  0  0  0
 15 16  1  0  0  0  0
 17 18  4  0  0  0  0
 18 19  4  0  0  0  0
 19 20  4  0  0  0  0
 21 22  4  0  0  0  0
 21 26  4  0  0  0  0
 22 23  4  0  0  0  0
 23 24  4  0  0  0  0
 24 25  4  0  0  0  0
 24 27  1  0  0  0  0
 25 26  4  0  0  0  0
M  END
>  <Name_Molregno>
330014

>  <Dopamine transporter>
6.7

>  <Norepinephrine transporter>
8.1

$$$$
330015
  Marvin  02231216192D 0   1.00000     0.00000     0

 24 26  0  0  1  0  0  0  0  0999 V2000
    0.0076    0.0836    0.0000 F   0  0  0  0  0  0  0  0  0
    0.0076   -0.7414    0.0000 C   0  0  0  0  0  0  0  0  0
    0.7220   -1.1539    0.0000 C   0  0  0  0  0  0  0  0  0
    0.7220   -1.9789    0.0000 C   0  0  0  0  0  0  0  0  0
    1.4365   -2.3914    0.0000 C   0  0  0  0  0  0  0  0  0
    1.4365   -3.2164    0.0000 C   0  0  0  0  0  0  0  0  0
    2.1510   -3.6289    0.0000 C   0  0  0  0  0  0  0  0  0
    2.8654   -3.2164    0.0000 C   0  0  0  0  0  0  0  0  0
    3.5799   -3.6289    0.0000 C   0  0  0  0  0  0  0  0  0
    4.2944   -3.2164    0.0000 N   0  0  0  0  0  0  0  0  0
    5.0089   -3.6289    0.0000 C   0  0  0  0  0  0  0  0  0
    0.7220   -3.6289    0.0000 C   0  0  0  0  0  0  0  0  0
    0.7220   -4.4539    0.0000 O   0  0  0  0  0  0  0  0  0
    0.0076   -3.2164    0.0000 N   0  0  0  0  0  0  0  0  0
    0.0076   -2.3914    0.0000 C   0  0  0  0  0  0  0  0  0
   -0.7069   -1.9789    0.0000 C   0  0  0  0  0  0  0  0  0
   -0.7069   -1.1539    0.0000 C   0  0  0  0  0  0  0  0  0
   -0.7069   -3.6289    0.0000 C   0  0  0  0  0  0  0  0  0
   -0.7069   -4.4539    0.0000 C   0  0  0  0  0  0  0  0  0
   -1.4214   -4.8664    0.0000 C   0  0  0  0  0  0  0  0  0
   -2.1359   -4.4539    0.0000 C   0  0  0  0  0  0  0  0  0
   -2.1359   -3.6289    0.0000 C   0  0  0  0  0  0  0  0  0
   -1.4214   -3.2164    0.0000 C   0  0  0  0  0  0  0  0  0
   -2.8503   -4.8664    0.0000 C   0  0  0  0  0  0  0  0  0
  1  2  1  0  0  0  0
  2  3  4  0  0  0  0
  2 17  4  0  0  0  0
  3  4  4  0  0  0  0
  4  5  1  0  0  0  0
  4 15  4  0  0  0  0
  5  6  1  0  0  0  0
  6  7  1  0  0  0  0
  6 12  1  0  0  0  0
  7  8  1  0  0  0  0
  8  9  1  0  0  0  0
  9 10  1  0  0  0  0
 10 11  1  0  0  0  0
 12 13  2  0  0  0  0
 12 14  1  0  0  0  0
 14 15  1  0  0  0  0
 14 18  1  0  0  0  0
 15 16  4  0  0  0  0
 16 17  4  0  0  0  0
 18 19  4  0  0  0  0
 18 23  4  0  0  0  0
 19 20  4  0  0  0  0
 20 21  4  0  0  0  0
 21 22  4  0  0  0  0
 21 24  1  0  0  0  0
 22 23  4  0  0  0  0
M  END
>  <Name_Molregno>
330015

>  <Dopamine transporter>
6.7

>  <Norepinephrine transporter>
8.3

>  <Serotonin transporter>
7

$$$$
330023
  Marvin  02231216192D 0   1.00000     0.00000     0

 24 26  0  0  1  0  0  0  0  0999 V2000
    0.0076    0.0836    0.0000 Cl  0  0  0  0  0  0  0  0  0
    0.0076   -0.7414    0.0000 C   0  0  0  0  0  0  0  0  0
    0.7220   -1.1539    0.0000 C   0  0  0  0  0  0  0  0  0
    0.7220   -1.9789    0.0000 C   0  0  0  0  0  0  0  0  0
    1.4365   -2.3914    0.0000 C   0  0  0  0  0  0  0  0  0
    1.4365   -3.2164    0.0000 C   0  0  0  0  0  0  0  0  0
    2.1510   -3.6289    0.0000 C   0  0  0  0  0  0  0  0  0
    2.8654   -3.2164    0.0000 C   0  0  0  0  0  0  0  0  0
    3.5799   -3.6289    0.0000 C   0  0  0  0  0  0  0  0  0
    4.2944   -3.2164    0.0000 N   0  0  0  0  0  0  0  0  0
    5.0089   -3.6289    0.0000 C   0  0  0  0  0  0  0  0  0
    0.7220   -3.6289    0.0000 C   0  0  0  0  0  0  0  0  0
    0.7220   -4.4539    0.0000 O   0  0  0  0  0  0  0  0  0
    0.0076   -3.2164    0.0000 N   0  0  0  0  0  0  0  0  0
    0.0076   -2.3914    0.0000 C   0  0  0  0  0  0  0  0  0
   -0.7069   -1.9789    0.0000 C   0  0  0  0  0  0  0  0  0
   -0.7069   -1.1539    0.0000 C   0  0  0  0  0  0  0  0  0
   -0.7069   -3.6289    0.0000 C   0  0  0  0  0  0  0  0  0
   -0.7069   -4.4539    0.0000 C   0  0  0  0  0  0  0  0  0
   -1.4214   -4.8664    0.0000 C   0  0  0  0  0  0  0  0  0
   -2.1359   -4.4539    0.0000 C   0  0  0  0  0  0  0  0  0
   -2.1359   -3.6289    0.0000 C   0  0  0  0  0  0  0  0  0
   -1.4214   -3.2164    0.0000 C   0  0  0  0  0  0  0  0  0
   -2.8503   -4.8664    0.0000 C   0  0  0  0  0  0  0  0  0
  1  2  1  0  0  0  0
  2  3  4  0  0  0  0
  2 17  4  0  0  0  0
  3  4  4  0  0  0  0
  4  5  1  0  0  0  0
  4 15  4  0  0  0  0
  5  6  1  0  0  0  0
  6  7  1  0  0  0  0
  6 12  1  0  0  0  0
  7  8  1  0  0  0  0
  8  9  1  0  0  0  0
  9 10  1  0  0  0  0
 10 11  1  0  0  0  0
 12 13  2  0  0  0  0
 12 14  1  0  0  0  0
 14 15  1  0  0  0  0
 14 18  1  0  0  0  0
 15 16  4  0  0  0  0
 16 17  4  0  0  0  0
 18 19  4  0  0  0  0
 18 23  4  0  0  0  0
 19 20  4  0  0  0  0
 20 21  4  0  0  0  0
 21 22  4  0  0  0  0
 21 24  1  0  0  0  0
 22 23  4  0  0  0  0
M  END
>  <Name_Molregno>
330023

>  <Dopamine transporter>
6.7

>  <Norepinephrine transporter>
8.22

>  <Serotonin transporter>
7

$$$$
330030
  Marvin  02231216192D 0   1.00000     0.00000     0

 25 27  0  0  1  0  0  0  0  0999 V2000
   -2.0045   -0.0110    0.0000 Cl  0  0  0  0  0  0  0  0  0
   -1.7223   -0.7862    0.0000 C   0  0  0  0  0  0  0  0  0
   -0.9099   -0.9295    0.0000 C   0  0  0  0  0  0  0  0  0
   -0.6277   -1.7047    0.0000 C   0  0  0  0  0  0  0  0  0
    0.1848   -1.8480    0.0000 C   0  0  0  0  0  0  0  0  0
    0.4669   -2.6232    0.0000 C   0  0  0  0  0  0  0  0  0
    1.1814   -2.2107    0.0000 C   0  0  0  0  0  0  0  0  0
    1.8959   -2.6232    0.0000 C   0  0  0  0  0  0  0  0  0
    2.6103   -2.2107    0.0000 C   0  0  0  0  0  0  0  0  0
    3.3248   -2.6232    0.0000 N   0  0  0  0  0  0  0  0  0
    4.0393   -2.2107    0.0000 C   0  0  0  0  0  0  0  0  0
    0.9972   -3.2552    0.0000 C   0  0  0  0  0  0  0  0  0
   -0.0634   -3.2552    0.0000 C   0  0  0  0  0  0  0  0  0
    0.2188   -4.0305    0.0000 O   0  0  0  0  0  0  0  0  0
   -0.8758   -3.1120    0.0000 N   0  0  0  0  0  0  0  0  0
   -1.1580   -2.3367    0.0000 C   0  0  0  0  0  0  0  0  0
   -1.9705   -2.1934    0.0000 C   0  0  0  0  0  0  0  0  0
   -2.2526   -1.4182    0.0000 C   0  0  0  0  0  0  0  0  0
   -1.4061   -3.7439    0.0000 C   0  0  0  0  0  0  0  0  0
   -1.1240   -4.5192    0.0000 C   0  0  0  0  0  0  0  0  0
   -1.6543   -5.1512    0.0000 C   0  0  0  0  0  0  0  0  0
   -2.4667   -5.0079    0.0000 C   0  0  0  0  0  0  0  0  0
   -2.7489   -4.2327    0.0000 C   0  0  0  0  0  0  0  0  0
   -2.2186   -3.6007    0.0000 C   0  0  0  0  0  0  0  0  0
   -2.9970   -5.6399    0.0000 C   0  0  0  0  0  0  0  0  0
  1  2  1  0  0  0  0
  2  3  4  0  0  0  0
  2 18  4  0  0  0  0
  3  4  4  0  0  0  0
  4  5  1  0  0  0  0
  4 16  4  0  0  0  0
  5  6  1  0  0  0  0
  6  7  1  0  0  0  0
  6 12  1  0  0  0  0
  6 13  1  0  0  0  0
  7  8  1  0  0  0  0
  8  9  1  0  0  0  0
  9 10  1  0  0  0  0
 10 11  1  0  0  0  0
 13 14  2  0  0  0  0
 13 15  1  0  0  0  0
 15 16  1  0  0  0  0
 15 19  1  0  0  0  0
 16 17  4  0  0  0  0
 17 18  4  0  0  0  0
 19 20  4  0  0  0  0
 19 24  4  0  0  0  0
 20 21  4  0  0  0  0
 21 22  4  0  0  0  0
 22 23  4  0  0  0  0
 22 25  1  0  0  0  0
 23 24  4  0  0  0  0
M  END
>  <Name_Molregno>
330030

>  <Norepinephrine transporter>
7.37

>  <Serotonin transporter>
7

$$$$
330031
  Marvin  02231216192D 0   1.00000     0.00000     0

 26 28  0  0  1  0  0  0  0  0999 V2000
   -2.1325   -0.3224    0.0000 Cl  0  0  0  0  0  0  0  0  0
   -1.8503   -1.0976    0.0000 C   0  0  0  0  0  0  0  0  0
   -1.0378   -1.2409    0.0000 C   0  0  0  0  0  0  0  0  0
   -0.7557   -2.0161    0.0000 C   0  0  0  0  0  0  0  0  0
    0.0568   -2.1594    0.0000 C   0  0  0  0  0  0  0  0  0
    0.3390   -2.9346    0.0000 C   0  0  0  0  0  0  0  0  0
    1.0534   -2.5221    0.0000 C   0  0  0  0  0  0  0  0  0
    1.7679   -2.9346    0.0000 C   0  0  0  0  0  0  0  0  0
    2.4824   -2.5221    0.0000 C   0  0  0  0  0  0  0  0  0
    3.1968   -2.9346    0.0000 N   0  0  0  0  0  0  0  0  0
    3.9113   -2.5221    0.0000 C   0  0  0  0  0  0  0  0  0
    0.8693   -3.5666    0.0000 C   0  0  0  0  0  0  0  0  0
    0.5871   -4.3419    0.0000 C   0  0  0  0  0  0  0  0  0
   -0.1913   -3.5666    0.0000 C   0  0  0  0  0  0  0  0  0
    0.0908   -4.3419    0.0000 O   0  0  0  0  0  0  0  0  0
   -1.0038   -3.4234    0.0000 N   0  0  0  0  0  0  0  0  0
   -1.2860   -2.6481    0.0000 C   0  0  0  0  0  0  0  0  0
   -2.0984   -2.5049    0.0000 C   0  0  0  0  0  0  0  0  0
   -2.3806   -1.7296    0.0000 C   0  0  0  0  0  0  0  0  0
   -1.5341   -4.0553    0.0000 C   0  0  0  0  0  0  0  0  0
   -1.2519   -4.8306    0.0000 C   0  0  0  0  0  0  0  0  0
   -1.7822   -5.4626    0.0000 C   0  0  0  0  0  0  0  0  0
   -2.5947   -5.3193    0.0000 C   0  0  0  0  0  0  0  0  0
   -2.8769   -4.5441    0.0000 C   0  0  0  0  0  0  0  0  0
   -2.3466   -3.9121    0.0000 C   0  0  0  0  0  0  0  0  0
   -3.1250   -5.9513    0.0000 C   0  0  0  0  0  0  0  0  0
  1  2  1  0  0  0  0
  2  3  4  0  0  0  0
  2 19  4  0  0  0  0
  3  4  4  0  0  0  0
  4  5  1  0  0  0  0
  4 17  4  0  0  0  0
  5  6  1  0  0  0  0
  6  7  1  0  0  0  0
  6 12  1  0  0  0  0
  6 14  1  0  0  0  0
  7  8  1  0  0  0  0
  8  9  1  0  0  0  0
  9 10  1  0  0  0  0
 10 11  1  0  0  0  0
 12 13  1  0  0  0  0
 14 15  2  0  0  0  0
 14 16  1  0  0  0  0
 16 17  1  0  0  0  0
 16 20  1  0  0  0  0
 17 18  4  0  0  0  0
 18 19  4  0  0  0  0
 20 21  4  0  0  0  0
 20 25  4  0  0  0  0
 21 22  4  0  0  0  0
 22 23  4  0  0  0  0
 23 24  4  0  0  0  0
 23 26  1  0  0  0  0
 24 25  4  0  0  0  0
M  END
>  <Name_Molregno>
330031

>  <Dopamine transporter>
6.7

>  <Norepinephrine transporter>
7.33

>  <Serotonin transporter>
6.89

$$$$
330070
  Marvin  02231216192D 0   1.00000     0.00000     0

 23 25  0  0  1  0  0  0  0  0999 V2000
    0.2619   -1.7508    0.0000 O   0  0  0  0  0  0  0  0  0
   -0.5626   -1.7796    0.0000 C   0  0  0  0  0  0  0  0  0
   -0.9998   -1.0800    0.0000 N   0  0  0  0  0  0  0  0  0
   -1.8243   -1.1088    0.0000 C   0  0  0  0  0  0  0  0  0
   -2.2116   -1.8372    0.0000 C   0  0  0  0  0  0  0  0  0
   -1.7744   -2.5368    0.0000 C   0  0  0  0  0  0  0  0  0
   -0.9499   -2.5080    0.0000 C   0  0  0  0  0  0  0  0  0
   -0.2354   -2.9205    0.0000 C   0  0  0  0  0  0  0  0  0
    0.4790   -2.5080    0.0000 C   0  0  0  0  0  0  0  0  0
    1.1935   -2.9205    0.0000 C   0  0  0  0  0  0  0  0  0
    1.9080   -2.5080    0.0000 N   0  0  0  0  0  0  0  0  0
    2.6225   -2.9205    0.0000 C   0  0  0  0  0  0  0  0  0
   -0.8924   -3.3310    0.0000 C   0  0  0  0  0  0  0  0  0
   -3.0361   -1.8660    0.0000 C   0  0  0  0  0  0  0  0  0
   -3.4733   -1.1663    0.0000 C   0  0  0  0  0  0  0  0  0
   -3.0860   -0.4379    0.0000 C   0  0  0  0  0  0  0  0  0
   -2.2615   -0.4091    0.0000 C   0  0  0  0  0  0  0  0  0
   -0.6125   -0.3515    0.0000 C   0  0  0  0  0  0  0  0  0
   -1.0496    0.3481    0.0000 C   0  0  0  0  0  0  0  0  0
   -0.6623    1.0765    0.0000 C   0  0  0  0  0  0  0  0  0
    0.1622    1.1053    0.0000 C   0  0  0  0  0  0  0  0  0
    0.5994    0.4057    0.0000 C   0  0  0  0  0  0  0  0  0
    0.2120   -0.3227    0.0000 C   0  0  0  0  0  0  0  0  0
  1  2  2  0  0  0  0
  2  3  1  0  0  0  0
  2  7  1  0  0  0  0
  3  4  1  0  0  0  0
  3 18  1  0  0  0  0
  4  5  4  0  0  0  0
  4 17  4  0  0  0  0
  5  6  1  0  0  0  0
  5 14  4  0  0  0  0
  6  7  1  0  0  0  0
  7  8  1  0  0  0  0
  7 13  1  0  0  0  0
  8  9  1  0  0  0  0
  9 10  1  0  0  0  0
 10 11  1  0  0  0  0
 11 12  1  0  0  0  0
 14 15  4  0  0  0  0
 15 16  4  0  0  0  0
 16 17  4  0  0  0  0
 18 19  4  0  0  0  0
 18 23  4  0  0  0  0
 19 20  4  0  0  0  0
 20 21  4  0  0  0  0
 21 22  4  0  0  0  0
 22 23  4  0  0  0  0
M  END
>  <Name_Molregno>
330070

>  <Dopamine transporter>
6.7

>  <Norepinephrine transporter>
7.36

>  <Serotonin transporter>
7

$$$$
330076
  Marvin  02231216192D 0   1.00000     0.00000     0

 24 26  0  0  1  0  0  0  0  0999 V2000
    0.4092   -1.8257    0.0000 O   0  0  0  0  0  0  0  0  0
   -0.4153   -1.8545    0.0000 C   0  0  0  0  0  0  0  0  0
   -0.8525   -1.1549    0.0000 N   0  0  0  0  0  0  0  0  0
   -1.6770   -1.1837    0.0000 C   0  0  0  0  0  0  0  0  0
   -2.0643   -1.9121    0.0000 C   0  0  0  0  0  0  0  0  0
   -1.6271   -2.6118    0.0000 C   0  0  0  0  0  0  0  0  0
   -0.8026   -2.5830    0.0000 C   0  0  0  0  0  0  0  0  0
   -0.0881   -2.9955    0.0000 C   0  0  0  0  0  0  0  0  0
    0.6263   -2.5830    0.0000 C   0  0  0  0  0  0  0  0  0
    1.3408   -2.9955    0.0000 C   0  0  0  0  0  0  0  0  0
    2.0553   -2.5830    0.0000 N   0  0  0  0  0  0  0  0  0
    2.7698   -2.9955    0.0000 C   0  0  0  0  0  0  0  0  0
   -0.7450   -3.4060    0.0000 C   0  0  0  0  0  0  0  0  0
   -2.8888   -1.9409    0.0000 C   0  0  0  0  0  0  0  0  0
   -3.3260   -1.2413    0.0000 C   0  0  0  0  0  0  0  0  0
   -2.9386   -0.5128    0.0000 C   0  0  0  0  0  0  0  0  0
   -2.1141   -0.4840    0.0000 C   0  0  0  0  0  0  0  0  0
   -0.4652   -0.4265    0.0000 C   0  0  0  0  0  0  0  0  0
   -0.9023    0.2732    0.0000 C   0  0  0  0  0  0  0  0  0
   -0.5150    1.0016    0.0000 C   0  0  0  0  0  0  0  0  0
    0.3095    1.0304    0.0000 C   0  0  0  0  0  0  0  0  0
    0.7467    0.3308    0.0000 C   0  0  0  0  0  0  0  0  0
    0.3593   -0.3977    0.0000 C   0  0  0  0  0  0  0  0  0
   -0.9522    1.7012    0.0000 C   0  0  0  0  0  0  0  0  0
  1  2  2  0  0  0  0
  2  3  1  0  0  0  0
  2  7  1  0  0  0  0
  3  4  1  0  0  0  0
  3 18  1  0  0  0  0
  4  5  4  0  0  0  0
  4 17  4  0  0  0  0
  5  6  1  0  0  0  0
  5 14  4  0  0  0  0
  6  7  1  0  0  0  0
  7  8  1  0  0  0  0
  7 13  1  0  0  0  0
  8  9  1  0  0  0  0
  9 10  1  0  0  0  0
 10 11  1  0  0  0  0
 11 12  1  0  0  0  0
 14 15  4  0  0  0  0
 15 16  4  0  0  0  0
 16 17  4  0  0  0  0
 18 19  4  0  0  0  0
 18 23  4  0  0  0  0
 19 20  4  0  0  0  0
 20 21  4  0  0  0  0
 20 24  1  0  0  0  0
 21 22  4  0  0  0  0
 22 23  4  0  0  0  0
M  END
>  <Name_Molregno>
330076

>  <Dopamine transporter>
6.7

>  <Norepinephrine transporter>
6.84

>  <Serotonin transporter>
7

$$$$
330077
  Marvin  02231216192D 0   1.00000     0.00000     0

 23 25  0  0  1  0  0  0  0  0999 V2000
    0.3096    1.5198    0.0000 F   0  0  0  0  0  0  0  0  0
    1.0240    1.1073    0.0000 C   0  0  0  0  0  0  0  0  0
    1.7385    1.5198    0.0000 C   0  0  0  0  0  0  0  0  0
    2.4530    1.1073    0.0000 C   0  0  0  0  0  0  0  0  0
    2.4530    0.2823    0.0000 C   0  0  0  0  0  0  0  0  0
    3.1674   -0.1302    0.0000 N   0  0  0  0  0  0  0  0  0
    3.1674   -0.9552    0.0000 C   0  0  0  0  0  0  0  0  0
    3.8819   -1.3677    0.0000 C   0  0  0  0  0  0  0  0  0
    4.5964   -0.9552    0.0000 C   0  0  0  0  0  0  0  0  0
    4.5964   -0.1302    0.0000 C   0  0  0  0  0  0  0  0  0
    5.3109    0.2823    0.0000 C   0  0  0  0  0  0  0  0  0
    6.0253   -0.1302    0.0000 C   0  0  0  0  0  0  0  0  0
    6.7398    0.2823    0.0000 C   0  0  0  0  0  0  0  0  0
    7.4543   -0.1302    0.0000 N   0  0  0  0  0  0  0  0  0
    8.1687    0.2823    0.0000 C   0  0  0  0  0  0  0  0  0
    3.8819    0.2823    0.0000 C   0  0  0  0  0  0  0  0  0
    3.8819    1.1073    0.0000 O   0  0  0  0  0  0  0  0  0
    3.8819   -2.1927    0.0000 C   0  0  0  0  0  0  0  0  0
    3.1674   -2.6052    0.0000 C   0  0  0  0  0  0  0  0  0
    2.4530   -2.1927    0.0000 C   0  0  0  0  0  0  0  0  0
    2.4530   -1.3677    0.0000 C   0  0  0  0  0  0  0  0  0
    1.7385   -0.1302    0.0000 C   0  0  0  0  0  0  0  0  0
    1.0240    0.2823    0.0000 C   0  0  0  0  0  0  0  0  0
  1  2  1  0  0  0  0
  2  3  4  0  0  0  0
  2 23  4  0  0  0  0
  3  4  4  0  0  0  0
  4  5  4  0  0  0  0
  5  6  1  0  0  0  0
  5 22  4  0  0  0  0
  6  7  1  0  0  0  0
  6 16  1  0  0  0  0
  7  8  4  0  0  0  0
  7 21  4  0  0  0  0
  8  9  1  0  0  0  0
  8 18  4  0  0  0  0
  9 10  1  0  0  0  0
 10 11  1  0  0  0  0
 10 16  1  0  0  0  0
 11 12  1  0  0  0  0
 12 13  1  0  0  0  0
 13 14  1  0  0  0  0
 14 15  1  0  0  0  0
 16 17  2  0  0  0  0
 18 19  4  0  0  0  0
 19 20  4  0  0  0  0
 20 21  4  0  0  0  0
 22 23  4  0  0  0  0
M  END
>  <Name_Molregno>
330077

>  <Dopamine transporter>
6.7

>  <Norepinephrine transporter>
7.04

>  <Serotonin transporter>
7

$$$$
330083
  Marvin  02231216192D 0   1.00000     0.00000     0

 23 25  0  0  1  0  0  0  0  0999 V2000
    0.3096    1.5198    0.0000 Cl  0  0  0  0  0  0  0  0  0
    1.0240    1.1073    0.0000 C   0  0  0  0  0  0  0  0  0
    1.7385    1.5198    0.0000 C   0  0  0  0  0  0  0  0  0
    2.4530    1.1073    0.0000 C   0  0  0  0  0  0  0  0  0
    2.4530    0.2823    0.0000 C   0  0  0  0  0  0  0  0  0
    3.1674   -0.1302    0.0000 N   0  0  0  0  0  0  0  0  0
    3.1674   -0.9552    0.0000 C   0  0  0  0  0  0  0  0  0
    3.8819   -1.3677    0.0000 C   0  0  0  0  0  0  0  0  0
    4.5964   -0.9552    0.0000 C   0  0  0  0  0  0  0  0  0
    4.5964   -0.1302    0.0000 C   0  0  0  0  0  0  0  0  0
    5.3109    0.2823    0.0000 C   0  0  0  0  0  0  0  0  0
    6.0253   -0.1302    0.0000 C   0  0  0  0  0  0  0  0  0
    6.7398    0.2823    0.0000 C   0  0  0  0  0  0  0  0  0
    7.4543   -0.1302    0.0000 N   0  0  0  0  0  0  0  0  0
    8.1687    0.2823    0.0000 C   0  0  0  0  0  0  0  0  0
    3.8819    0.2823    0.0000 C   0  0  0  0  0  0  0  0  0
    3.8819    1.1073    0.0000 O   0  0  0  0  0  0  0  0  0
    3.8819   -2.1927    0.0000 C   0  0  0  0  0  0  0  0  0
    3.1674   -2.6052    0.0000 C   0  0  0  0  0  0  0  0  0
    2.4530   -2.1927    0.0000 C   0  0  0  0  0  0  0  0  0
    2.4530   -1.3677    0.0000 C   0  0  0  0  0  0  0  0  0
    1.7385   -0.1302    0.0000 C   0  0  0  0  0  0  0  0  0
    1.0240    0.2823    0.0000 C   0  0  0  0  0  0  0  0  0
  1  2  1  0  0  0  0
  2  3  4  0  0  0  0
  2 23  4  0  0  0  0
  3  4  4  0  0  0  0
  4  5  4  0  0  0  0
  5  6  1  0  0  0  0
  5 22  4  0  0  0  0
  6  7  1  0  0  0  0
  6 16  1  0  0  0  0
  7  8  4  0  0  0  0
  7 21  4  0  0  0  0
  8  9  1  0  0  0  0
  8 18  4  0  0  0  0
  9 10  1  0  0  0  0
 10 11  1  0  0  0  0
 10 16  1  0  0  0  0
 11 12  1  0  0  0  0
 12 13  1  0  0  0  0
 13 14  1  0  0  0  0
 14 15  1  0  0  0  0
 16 17  2  0  0  0  0
 18 19  4  0  0  0  0
 19 20  4  0  0  0  0
 20 21  4  0  0  0  0
 22 23  4  0  0  0  0
M  END
>  <Name_Molregno>
330083

>  <Dopamine transporter>
6.7

>  <Norepinephrine transporter>
7.68

>  <Serotonin transporter>
7

$$$$
330084
  Marvin  02231216192D 0   1.00000     0.00000     0

 23 25  0  0  1  0  0  0  0  0999 V2000
    0.6687    0.0812    0.0000 O   0  0  0  0  0  0  0  0  0
    0.6687   -0.7438    0.0000 C   0  0  0  0  0  0  0  0  0
   -0.0458   -1.1563    0.0000 N   0  0  0  0  0  0  0  0  0
   -0.0458   -1.9813    0.0000 C   0  0  0  0  0  0  0  0  0
    0.6687   -2.3938    0.0000 C   0  0  0  0  0  0  0  0  0
    1.3831   -1.9813    0.0000 C   0  0  0  0  0  0  0  0  0
    1.3831   -1.1563    0.0000 C   0  0  0  0  0  0  0  0  0
    2.0976   -0.7438    0.0000 C   0  0  0  0  0  0  0  0  0
    2.8121   -1.1563    0.0000 C   0  0  0  0  0  0  0  0  0
    3.5265   -0.7438    0.0000 C   0  0  0  0  0  0  0  0  0
    4.2410   -1.1563    0.0000 N   0  0  0  0  0  0  0  0  0
    4.9555   -0.7438    0.0000 C   0  0  0  0  0  0  0  0  0
    0.6687   -3.2188    0.0000 C   0  0  0  0  0  0  0  0  0
   -0.0458   -3.6313    0.0000 C   0  0  0  0  0  0  0  0  0
   -0.7603   -3.2188    0.0000 C   0  0  0  0  0  0  0  0  0
   -0.7603   -2.3938    0.0000 C   0  0  0  0  0  0  0  0  0
   -0.7603   -0.7438    0.0000 C   0  0  0  0  0  0  0  0  0
   -1.4748   -1.1563    0.0000 C   0  0  0  0  0  0  0  0  0
   -2.1892   -0.7438    0.0000 C   0  0  0  0  0  0  0  0  0
   -2.1892    0.0812    0.0000 C   0  0  0  0  0  0  0  0  0
   -1.4748    0.4937    0.0000 C   0  0  0  0  0  0  0  0  0
   -0.7603    0.0812    0.0000 C   0  0  0  0  0  0  0  0  0
   -2.9037    0.4937    0.0000 C   0  0  0  0  0  0  0  0  0
  1  2  2  0  0  0  0
  2  3  1  0  0  0  0
  2  7  1  0  0  0  0
  3  4  1  0  0  0  0
  3 17  1  0  0  0  0
  4  5  4  0  0  0  0
  4 16  4  0  0  0  0
  5  6  1  0  0  0  0
  5 13  4  0  0  0  0
  6  7  1  0  0  0  0
  7  8  1  0  0  0  0
  8  9  1  0  0  0  0
  9 10  1  0  0  0  0
 10 11  1  0  0  0  0
 11 12  1  0  0  0  0
 13 14  4  0  0  0  0
 14 15  4  0  0  0  0
 15 16  4  0  0  0  0
 17 18  4  0  0  0  0
 17 22  4  0  0  0  0
 18 19  4  0  0  0  0
 19 20  4  0  0  0  0
 20 21  4  0  0  0  0
 20 23  1  0  0  0  0
 21 22  4  0  0  0  0
M  END
>  <Name_Molregno>
330084

>  <Dopamine transporter>
6.7

>  <Norepinephrine transporter>
8.52

>  <Serotonin transporter>
7

$$$$
330089
  Marvin  02231216192D 0   1.00000     0.00000     0

 24 26  0  0  1  0  0  0  0  0999 V2000
    0.6639    0.0478    0.0000 O   0  0  0  0  0  0  0  0  0
    0.6639   -0.7772    0.0000 C   0  0  0  0  0  0  0  0  0
   -0.0506   -1.1897    0.0000 N   0  0  0  0  0  0  0  0  0
   -0.0506   -2.0147    0.0000 C   0  0  0  0  0  0  0  0  0
    0.6639   -2.4272    0.0000 C   0  0  0  0  0  0  0  0  0
    1.3783   -2.0147    0.0000 C   0  0  0  0  0  0  0  0  0
    1.3783   -1.1897    0.0000 C   0  0  0  0  0  0  0  0  0
    2.0928   -0.7772    0.0000 C   0  0  0  0  0  0  0  0  0
    2.8073   -1.1897    0.0000 C   0  0  0  0  0  0  0  0  0
    3.5218   -0.7772    0.0000 C   0  0  0  0  0  0  0  0  0
    4.2362   -1.1897    0.0000 N   0  0  0  0  0  0  0  0  0
    4.9507   -0.7772    0.0000 C   0  0  0  0  0  0  0  0  0
    0.6639   -3.2522    0.0000 C   0  0  0  0  0  0  0  0  0
   -0.0506   -3.6647    0.0000 C   0  0  0  0  0  0  0  0  0
   -0.7651   -3.2522    0.0000 C   0  0  0  0  0  0  0  0  0
   -0.7651   -2.4272    0.0000 C   0  0  0  0  0  0  0  0  0
   -0.7651   -0.7772    0.0000 C   0  0  0  0  0  0  0  0  0
   -1.4795   -1.1897    0.0000 C   0  0  0  0  0  0  0  0  0
   -2.1940   -0.7772    0.0000 C   0  0  0  0  0  0  0  0  0
   -2.1940    0.0478    0.0000 C   0  0  0  0  0  0  0  0  0
   -1.4795    0.4603    0.0000 C   0  0  0  0  0  0  0  0  0
   -0.7651    0.0478    0.0000 C   0  0  0  0  0  0  0  0  0
   -2.9085    0.4603    0.0000 C   0  0  0  0  0  0  0  0  0
   -3.6230    0.0478    0.0000 C   0  0  0  0  0  0  0  0  0
  1  2  2  0  0  0  0
  2  3  1  0  0  0  0
  2  7  1  0  0  0  0
  3  4  1  0  0  0  0
  3 17  1  0  0  0  0
  4  5  4  0  0  0  0
  4 16  4  0  0  0  0
  5  6  1  0  0  0  0
  5 13  4  0  0  0  0
  6  7  1  0  0  0  0
  7  8  1  0  0  0  0
  8  9  1  0  0  0  0
  9 10  1  0  0  0  0
 10 11  1  0  0  0  0
 11 12  1  0  0  0  0
 13 14  4  0  0  0  0
 14 15  4  0  0  0  0
 15 16  4  0  0  0  0
 17 18  4  0  0  0  0
 17 22  4  0  0  0  0
 18 19  4  0  0  0  0
 19 20  4  0  0  0  0
 20 21  4  0  0  0  0
 20 23  1  0  0  0  0
 21 22  4  0  0  0  0
 23 24  1  0  0  0  0
M  END
>  <Name_Molregno>
330089

>  <Dopamine transporter>
6.7

>  <Norepinephrine transporter>
6.82

>  <Serotonin transporter>
7

$$$$
330090
  Marvin  02231216192D 0   1.00000     0.00000     0

 26 28  0  0  1  0  0  0  0  0999 V2000
   -6.9517    2.0142    0.0000 F   0  0  0  0  0  0  0  0  0
   -6.2372    1.6017    0.0000 C   0  0  0  0  0  0  0  0  0
   -6.6497    0.8873    0.0000 F   0  0  0  0  0  0  0  0  0
   -5.8247    2.3162    0.0000 F   0  0  0  0  0  0  0  0  0
   -5.5227    1.1892    0.0000 C   0  0  0  0  0  0  0  0  0
   -4.8083    1.6017    0.0000 C   0  0  0  0  0  0  0  0  0
   -4.0938    1.1892    0.0000 C   0  0  0  0  0  0  0  0  0
   -4.0938    0.3642    0.0000 C   0  0  0  0  0  0  0  0  0
   -3.3793   -0.0483    0.0000 N   0  0  0  0  0  0  0  0  0
   -3.3793   -0.8733    0.0000 C   0  0  0  0  0  0  0  0  0
   -2.6649   -1.2858    0.0000 C   0  0  0  0  0  0  0  0  0
   -1.9504   -0.8733    0.0000 C   0  0  0  0  0  0  0  0  0
   -1.9504   -0.0483    0.0000 C   0  0  0  0  0  0  0  0  0
   -1.2359    0.3642    0.0000 C   0  0  0  0  0  0  0  0  0
   -0.5215   -0.0483    0.0000 C   0  0  0  0  0  0  0  0  0
    0.1930    0.3642    0.0000 C   0  0  0  0  0  0  0  0  0
    0.9075   -0.0483    0.0000 N   0  0  0  0  0  0  0  0  0
    1.6220    0.3642    0.0000 C   0  0  0  0  0  0  0  0  0
   -2.6649    0.3642    0.0000 C   0  0  0  0  0  0  0  0  0
   -2.6649    1.1892    0.0000 O   0  0  0  0  0  0  0  0  0
   -2.6649   -2.1108    0.0000 C   0  0  0  0  0  0  0  0  0
   -3.3793   -2.5233    0.0000 C   0  0  0  0  0  0  0  0  0
   -4.0938   -2.1108    0.0000 C   0  0  0  0  0  0  0  0  0
   -4.0938   -1.2858    0.0000 C   0  0  0  0  0  0  0  0  0
   -4.8083   -0.0483    0.0000 C   0  0  0  0  0  0  0  0  0
   -5.5227    0.3642    0.0000 C   0  0  0  0  0  0  0  0  0
  1  2  1  0  0  0  0
  2  3  1  0  0  0  0
  2  4  1  0  0  0  0
  2  5  1  0  0  0  0
  5  6  4  0  0  0  0
  5 26  4  0  0  0  0
  6  7  4  0  0  0  0
  7  8  4  0  0  0  0
  8  9  1  0  0  0  0
  8 25  4  0  0  0  0
  9 10  1  0  0  0  0
  9 19  1  0  0  0  0
 10 11  4  0  0  0  0
 10 24  4  0  0  0  0
 11 12  1  0  0  0  0
 11 21  4  0  0  0  0
 12 13  1  0  0  0  0
 13 14  1  0  0  0  0
 13 19  1  0  0  0  0
 14 15  1  0  0  0  0
 15 16  1  0  0  0  0
 16 17  1  0  0  0  0
 17 18  1  0  0  0  0
 19 20  2  0  0  0  0
 21 22  4  0  0  0  0
 22 23  4  0  0  0  0
 23 24  4  0  0  0  0
 25 26  4  0  0  0  0
M  END
>  <Name_Molregno>
330090

>  <Dopamine transporter>
6.7

>  <Norepinephrine transporter>
5.84

>  <Serotonin transporter>
7

$$$$
330096
  Marvin  02231216192D 0   1.00000     0.00000     0

 24 26  0  0  1  0  0  0  0  0999 V2000
    0.3888   -1.8921    0.0000 O   0  0  0  0  0  0  0  0  0
   -0.4357   -1.9209    0.0000 C   0  0  0  0  0  0  0  0  0
   -0.8729   -1.2212    0.0000 N   0  0  0  0  0  0  0  0  0
   -1.6974   -1.2500    0.0000 C   0  0  0  0  0  0  0  0  0
   -2.0847   -1.9785    0.0000 C   0  0  0  0  0  0  0  0  0
   -1.6475   -2.6781    0.0000 C   0  0  0  0  0  0  0  0  0
   -0.8230   -2.6493    0.0000 C   0  0  0  0  0  0  0  0  0
   -0.1086   -3.0618    0.0000 C   0  0  0  0  0  0  0  0  0
    0.6059   -2.6493    0.0000 C   0  0  0  0  0  0  0  0  0
    1.3204   -3.0618    0.0000 C   0  0  0  0  0  0  0  0  0
    2.0348   -2.6493    0.0000 N   0  0  0  0  0  0  0  0  0
    2.7493   -3.0618    0.0000 C   0  0  0  0  0  0  0  0  0
   -0.7655   -3.4723    0.0000 C   0  0  0  0  0  0  0  0  0
   -2.9092   -2.0073    0.0000 C   0  0  0  0  0  0  0  0  0
   -3.3464   -1.3076    0.0000 C   0  0  0  0  0  0  0  0  0
   -2.9591   -0.5792    0.0000 C   0  0  0  0  0  0  0  0  0
   -2.1346   -0.5504    0.0000 C   0  0  0  0  0  0  0  0  0
   -0.4856   -0.4928    0.0000 C   0  0  0  0  0  0  0  0  0
   -0.9228    0.2068    0.0000 C   0  0  0  0  0  0  0  0  0
   -0.5355    0.9353    0.0000 C   0  0  0  0  0  0  0  0  0
    0.2890    0.9641    0.0000 C   0  0  0  0  0  0  0  0  0
    0.7262    0.2644    0.0000 C   0  0  0  0  0  0  0  0  0
    0.3389   -0.4640    0.0000 C   0  0  0  0  0  0  0  0  0
    0.6763    1.6925    0.0000 C   0  0  0  0  0  0  0  0  0
  1  2  2  0  0  0  0
  2  3  1  0  0  0  0
  2  7  1  0  0  0  0
  3  4  1  0  0  0  0
  3 18  1  0  0  0  0
  4  5  4  0  0  0  0
  4 17  4  0  0  0  0
  5  6  1  0  0  0  0
  5 14  4  0  0  0  0
  6  7  1  0  0  0  0
  7  8  1  0  0  0  0
  7 13  1  0  0  0  0
  8  9  1  0  0  0  0
  9 10  1  0  0  0  0
 10 11  1  0  0  0  0
 11 12  1  0  0  0  0
 14 15  4  0  0  0  0
 15 16  4  0  0  0  0
 16 17  4  0  0  0  0
 18 19  4  0  0  0  0
 18 23  4  0  0  0  0
 19 20  4  0  0  0  0
 20 21  4  0  0  0  0
 21 22  4  0  0  0  0
 21 24  1  0  0  0  0
 22 23  4  0  0  0  0
M  END
>  <Name_Molregno>
330096

>  <Dopamine transporter>
6.7

>  <Norepinephrine transporter>
8.05

>  <Serotonin transporter>
7

$$$$
330097
  Marvin  02231216192D 0   1.00000     0.00000     0

 26 28  0  0  1  0  0  0  0  0999 V2000
    0.3269   -0.0142    0.0000 O   0  0  0  0  0  0  0  0  0
    0.7641   -0.7138    0.0000 C   0  0  0  0  0  0  0  0  0
    0.3767   -1.4422    0.0000 N   0  0  0  0  0  0  0  0  0
    0.8139   -2.1419    0.0000 C   0  0  0  0  0  0  0  0  0
    1.6384   -2.1131    0.0000 C   0  0  0  0  0  0  0  0  0
    2.0257   -1.3846    0.0000 C   0  0  0  0  0  0  0  0  0
    1.5886   -0.6850    0.0000 C   0  0  0  0  0  0  0  0  0
    1.5886    0.1400    0.0000 C   0  0  0  0  0  0  0  0  0
    2.3030    0.5525    0.0000 C   0  0  0  0  0  0  0  0  0
    3.0175    0.1400    0.0000 C   0  0  0  0  0  0  0  0  0
    3.7320    0.5525    0.0000 N   0  0  0  0  0  0  0  0  0
    4.4464    0.1400    0.0000 C   0  0  0  0  0  0  0  0  0
    2.2725   -0.2237    0.0000 C   0  0  0  0  0  0  0  0  0
    2.0756   -2.8127    0.0000 C   0  0  0  0  0  0  0  0  0
    1.6883   -3.5411    0.0000 C   0  0  0  0  0  0  0  0  0
    0.8638   -3.5699    0.0000 C   0  0  0  0  0  0  0  0  0
    0.4266   -2.8703    0.0000 C   0  0  0  0  0  0  0  0  0
   -0.4478   -1.4710    0.0000 C   0  0  0  0  0  0  0  0  0
   -0.8351   -2.1994    0.0000 C   0  0  0  0  0  0  0  0  0
   -1.6596   -2.2282    0.0000 C   0  0  0  0  0  0  0  0  0
   -2.0967   -1.5286    0.0000 C   0  0  0  0  0  0  0  0  0
   -1.7094   -0.8002    0.0000 C   0  0  0  0  0  0  0  0  0
   -0.8849   -0.7714    0.0000 C   0  0  0  0  0  0  0  0  0
   -2.9212   -1.5574    0.0000 C   0  0  0  0  0  0  0  0  0
   -3.3086   -2.2858    0.0000 C   0  0  0  0  0  0  0  0  0
   -3.3584   -0.8578    0.0000 C   0  0  0  0  0  0  0  0  0
  1  2  2  0  0  0  0
  2  3  1  0  0  0  0
  2  7  1  0  0  0  0
  3  4  1  0  0  0  0
  3 18  1  0  0  0  0
  4  5  4  0  0  0  0
  4 17  4  0  0  0  0
  5  6  1  0  0  0  0
  5 14  4  0  0  0  0
  6  7  1  0  0  0  0
  7  8  1  0  0  0  0
  7 13  1  0  0  0  0
  8  9  1  0  0  0  0
  9 10  1  0  0  0  0
 10 11  1  0  0  0  0
 11 12  1  0  0  0  0
 14 15  4  0  0  0  0
 15 16  4  0  0  0  0
 16 17  4  0  0  0  0
 18 19  4  0  0  0  0
 18 23  4  0  0  0  0
 19 20  4  0  0  0  0
 20 21  4  0  0  0  0
 21 22  4  0  0  0  0
 21 24  1  0  0  0  0
 22 23  4  0  0  0  0
 24 25  1  0  0  0  0
 24 26  1  0  0  0  0
M  END
>  <Name_Molregno>
330097

>  <Dopamine transporter>
6.7

>  <Norepinephrine transporter>
6.7

>  <Serotonin transporter>
7

$$$$
330102
  Marvin  02231216192D 0   1.00000     0.00000     0

 24 26  0  0  1  0  0  0  0  0999 V2000
    0.9015    1.2761    0.0000 Cl  0  0  0  0  0  0  0  0  0
    0.9015    0.4511    0.0000 C   0  0  0  0  0  0  0  0  0
    1.6159    0.0386    0.0000 C   0  0  0  0  0  0  0  0  0
    1.6159   -0.7864    0.0000 C   0  0  0  0  0  0  0  0  0
    2.3304   -1.1989    0.0000 N   0  0  0  0  0  0  0  0  0
    2.3304   -2.0239    0.0000 C   0  0  0  0  0  0  0  0  0
    3.0449   -2.4364    0.0000 C   0  0  0  0  0  0  0  0  0
    3.7593   -2.0239    0.0000 C   0  0  0  0  0  0  0  0  0
    3.7593   -1.1989    0.0000 C   0  0  0  0  0  0  0  0  0
    4.4738   -0.7864    0.0000 C   0  0  0  0  0  0  0  0  0
    5.1883   -1.1989    0.0000 C   0  0  0  0  0  0  0  0  0
    5.9028   -0.7864    0.0000 C   0  0  0  0  0  0  0  0  0
    6.6172   -1.1989    0.0000 N   0  0  0  0  0  0  0  0  0
    7.3317   -0.7864    0.0000 C   0  0  0  0  0  0  0  0  0
    3.0449   -0.7864    0.0000 C   0  0  0  0  0  0  0  0  0
    3.0449    0.0386    0.0000 O   0  0  0  0  0  0  0  0  0
    3.0449   -3.2614    0.0000 C   0  0  0  0  0  0  0  0  0
    2.3304   -3.6739    0.0000 C   0  0  0  0  0  0  0  0  0
    1.6159   -3.2614    0.0000 C   0  0  0  0  0  0  0  0  0
    1.6159   -2.4364    0.0000 C   0  0  0  0  0  0  0  0  0
    0.9015   -1.1989    0.0000 C   0  0  0  0  0  0  0  0  0
    0.1870   -0.7864    0.0000 C   0  0  0  0  0  0  0  0  0
    0.1870    0.0386    0.0000 C   0  0  0  0  0  0  0  0  0
   -0.5275    0.4511    0.0000 Cl  0  0  0  0  0  0  0  0  0
  1  2  1  0  0  0  0
  2  3  4  0  0  0  0
  2 23  4  0  0  0  0
  3  4  4  0  0  0  0
  4  5  1  0  0  0  0
  4 21  4  0  0  0  0
  5  6  1  0  0  0  0
  5 15  1  0  0  0  0
  6  7  4  0  0  0  0
  6 20  4  0  0  0  0
  7  8  1  0  0  0  0
  7 17  4  0  0  0  0
  8  9  1  0  0  0  0
  9 10  1  0  0  0  0
  9 15  1  0  0  0  0
 10 11  1  0  0  0  0
 11 12  1  0  0  0  0
 12 13  1  0  0  0  0
 13 14  1  0  0  0  0
 15 16  2  0  0  0  0
 17 18  4  0  0  0  0
 18 19  4  0  0  0  0
 19 20  4  0  0  0  0
 21 22  4  0  0  0  0
 22 23  4  0  0  0  0
 23 24  1  0  0  0  0
M  END
>  <Name_Molregno>
330102

>  <Dopamine transporter>
7.89

>  <Norepinephrine transporter>
7.21

>  <Serotonin transporter>
7

$$$$
330108
  Marvin  02231216192D 0   1.00000     0.00000     0

 25 27  0  0  1  0  0  0  0  0999 V2000
    1.8870    1.5377    0.0000 F   0  0  0  0  0  0  0  0  0
    1.6048    0.7625    0.0000 C   0  0  0  0  0  0  0  0  0
    2.1351    0.1305    0.0000 C   0  0  0  0  0  0  0  0  0
    1.8529   -0.6448    0.0000 C   0  0  0  0  0  0  0  0  0
    2.3832   -1.2768    0.0000 N   0  0  0  0  0  0  0  0  0
    2.1011   -2.0520    0.0000 C   0  0  0  0  0  0  0  0  0
    2.6314   -2.6840    0.0000 C   0  0  0  0  0  0  0  0  0
    3.4438   -2.5407    0.0000 C   0  0  0  0  0  0  0  0  0
    3.7260   -1.7655    0.0000 C   0  0  0  0  0  0  0  0  0
    4.4405   -2.1780    0.0000 C   0  0  0  0  0  0  0  0  0
    5.1549   -1.7655    0.0000 C   0  0  0  0  0  0  0  0  0
    5.8694   -2.1780    0.0000 C   0  0  0  0  0  0  0  0  0
    6.5839   -1.7655    0.0000 N   0  0  0  0  0  0  0  0  0
    7.2983   -2.1780    0.0000 C   0  0  0  0  0  0  0  0  0
    4.2563   -1.1335    0.0000 C   0  0  0  0  0  0  0  0  0
    3.1957   -1.1335    0.0000 C   0  0  0  0  0  0  0  0  0
    3.4779   -0.3582    0.0000 O   0  0  0  0  0  0  0  0  0
    2.3492   -3.4592    0.0000 C   0  0  0  0  0  0  0  0  0
    1.5367   -3.6025    0.0000 C   0  0  0  0  0  0  0  0  0
    1.0064   -2.9705    0.0000 C   0  0  0  0  0  0  0  0  0
    1.2886   -2.1953    0.0000 C   0  0  0  0  0  0  0  0  0
    1.0405   -0.7880    0.0000 C   0  0  0  0  0  0  0  0  0
    0.5102   -0.1560    0.0000 C   0  0  0  0  0  0  0  0  0
    0.7923    0.6192    0.0000 C   0  0  0  0  0  0  0  0  0
    0.2620    1.2512    0.0000 F   0  0  0  0  0  0  0  0  0
  1  2  1  0  0  0  0
  2  3  4  0  0  0  0
  2 24  4  0  0  0  0
  3  4  4  0  0  0  0
  4  5  1  0  0  0  0
  4 22  4  0  0  0  0
  5  6  1  0  0  0  0
  5 16  1  0  0  0  0
  6  7  4  0  0  0  0
  6 21  4  0  0  0  0
  7  8  1  0  0  0  0
  7 18  4  0  0  0  0
  8  9  1  0  0  0  0
  9 10  1  0  0  0  0
  9 15  1  0  0  0  0
  9 16  1  0  0  0  0
 10 11  1  0  0  0  0
 11 12  1  0  0  0  0
 12 13  1  0  0  0  0
 13 14  1  0  0  0  0
 16 17  2  0  0  0  0
 18 19  4  0  0  0  0
 19 20  4  0  0  0  0
 20 21  4  0  0  0  0
 22 23  4  0  0  0  0
 23 24  4  0  0  0  0
 24 25  1  0  0  0  0
M  END
>  <Name_Molregno>
330108

>  <Dopamine transporter>
6.7

>  <Norepinephrine transporter>
7.11

>  <Serotonin transporter>
7

$$$$
330109
  Marvin  02231216192D 0   1.00000     0.00000     0

 25 27  0  0  1  0  0  0  0  0999 V2000
   -1.3325   -1.6534    0.0000 F   0  0  0  0  0  0  0  0  0
   -0.8022   -2.2854    0.0000 C   0  0  0  0  0  0  0  0  0
    0.0103   -2.1421    0.0000 C   0  0  0  0  0  0  0  0  0
    0.5406   -2.7741    0.0000 C   0  0  0  0  0  0  0  0  0
    1.3531   -2.6308    0.0000 N   0  0  0  0  0  0  0  0  0
    1.8834   -3.2628    0.0000 C   0  0  0  0  0  0  0  0  0
    2.6958   -3.1196    0.0000 C   0  0  0  0  0  0  0  0  0
    2.9780   -2.3443    0.0000 C   0  0  0  0  0  0  0  0  0
    2.4477   -1.7123    0.0000 C   0  0  0  0  0  0  0  0  0
    3.1622   -1.2998    0.0000 C   0  0  0  0  0  0  0  0  0
    3.8766   -1.7123    0.0000 C   0  0  0  0  0  0  0  0  0
    4.5911   -1.2998    0.0000 C   0  0  0  0  0  0  0  0  0
    5.3056   -1.7123    0.0000 N   0  0  0  0  0  0  0  0  0
    6.0200   -1.2998    0.0000 C   0  0  0  0  0  0  0  0  0
    2.1655   -0.9371    0.0000 C   0  0  0  0  0  0  0  0  0
    1.6352   -1.8556    0.0000 C   0  0  0  0  0  0  0  0  0
    1.1049   -1.2236    0.0000 O   0  0  0  0  0  0  0  0  0
    3.2261   -3.7516    0.0000 C   0  0  0  0  0  0  0  0  0
    2.9440   -4.5268    0.0000 C   0  0  0  0  0  0  0  0  0
    2.1315   -4.6701    0.0000 C   0  0  0  0  0  0  0  0  0
    1.6012   -4.0381    0.0000 C   0  0  0  0  0  0  0  0  0
    0.2584   -3.5493    0.0000 C   0  0  0  0  0  0  0  0  0
   -0.5540   -3.6926    0.0000 C   0  0  0  0  0  0  0  0  0
   -0.8362   -4.4679    0.0000 F   0  0  0  0  0  0  0  0  0
   -1.0843   -3.0606    0.0000 C   0  0  0  0  0  0  0  0  0
  1  2  1  0  0  0  0
  2  3  4  0  0  0  0
  2 25  4  0  0  0  0
  3  4  4  0  0  0  0
  4  5  1  0  0  0  0
  4 22  4  0  0  0  0
  5  6  1  0  0  0  0
  5 16  1  0  0  0  0
  6  7  4  0  0  0  0
  6 21  4  0  0  0  0
  7  8  1  0  0  0  0
  7 18  4  0  0  0  0
  8  9  1  0  0  0  0
  9 10  1  0  0  0  0
  9 15  1  0  0  0  0
  9 16  1  0  0  0  0
 10 11  1  0  0  0  0
 11 12  1  0  0  0  0
 12 13  1  0  0  0  0
 13 14  1  0  0  0  0
 16 17  2  0  0  0  0
 18 19  4  0  0  0  0
 19 20  4  0  0  0  0
 20 21  4  0  0  0  0
 22 23  4  0  0  0  0
 23 24  1  0  0  0  0
 23 25  4  0  0  0  0
M  END
>  <Name_Molregno>
330109

>  <Dopamine transporter>
6.7

>  <Norepinephrine transporter>
6.78

>  <Serotonin transporter>
7

$$$$
330115
  Marvin  02231216192D 0   1.00000     0.00000     0

 25 27  0  0  1  0  0  0  0  0999 V2000
   -1.3325   -1.6534    0.0000 Cl  0  0  0  0  0  0  0  0  0
   -0.8022   -2.2854    0.0000 C   0  0  0  0  0  0  0  0  0
    0.0103   -2.1421    0.0000 C   0  0  0  0  0  0  0  0  0
    0.5406   -2.7741    0.0000 C   0  0  0  0  0  0  0  0  0
    1.3531   -2.6308    0.0000 N   0  0  0  0  0  0  0  0  0
    1.8834   -3.2628    0.0000 C   0  0  0  0  0  0  0  0  0
    2.6958   -3.1196    0.0000 C   0  0  0  0  0  0  0  0  0
    2.9780   -2.3443    0.0000 C   0  0  0  0  0  0  0  0  0
    2.4477   -1.7123    0.0000 C   0  0  0  0  0  0  0  0  0
    3.1622   -1.2998    0.0000 C   0  0  0  0  0  0  0  0  0
    3.8766   -1.7123    0.0000 C   0  0  0  0  0  0  0  0  0
    4.5911   -1.2998    0.0000 C   0  0  0  0  0  0  0  0  0
    5.3056   -1.7123    0.0000 N   0  0  0  0  0  0  0  0  0
    6.0200   -1.2998    0.0000 C   0  0  0  0  0  0  0  0  0
    2.1655   -0.9371    0.0000 C   0  0  0  0  0  0  0  0  0
    1.6352   -1.8556    0.0000 C   0  0  0  0  0  0  0  0  0
    1.1049   -1.2236    0.0000 O   0  0  0  0  0  0  0  0  0
    3.2261   -3.7516    0.0000 C   0  0  0  0  0  0  0  0  0
    2.9440   -4.5268    0.0000 C   0  0  0  0  0  0  0  0  0
    2.1315   -4.6701    0.0000 C   0  0  0  0  0  0  0  0  0
    1.6012   -4.0381    0.0000 C   0  0  0  0  0  0  0  0  0
    0.2584   -3.5493    0.0000 C   0  0  0  0  0  0  0  0  0
   -0.5540   -3.6926    0.0000 C   0  0  0  0  0  0  0  0  0
   -0.8362   -4.4679    0.0000 Cl  0  0  0  0  0  0  0  0  0
   -1.0843   -3.0606    0.0000 C   0  0  0  0  0  0  0  0  0
  1  2  1  0  0  0  0
  2  3  4  0  0  0  0
  2 25  4  0  0  0  0
  3  4  4  0  0  0  0
  4  5  1  0  0  0  0
  4 22  4  0  0  0  0
  5  6  1  0  0  0  0
  5 16  1  0  0  0  0
  6  7  4  0  0  0  0
  6 21  4  0  0  0  0
  7  8  1  0  0  0  0
  7 18  4  0  0  0  0
  8  9  1  0  0  0  0
  9 10  1  0  0  0  0
  9 15  1  0  0  0  0
  9 16  1  0  0  0  0
 10 11  1  0  0  0  0
 11 12  1  0  0  0  0
 12 13  1  0  0  0  0
 13 14  1  0  0  0  0
 16 17  2  0  0  0  0
 18 19  4  0  0  0  0
 19 20  4  0  0  0  0
 20 21  4  0  0  0  0
 22 23  4  0  0  0  0
 23 24  1  0  0  0  0
 23 25  4  0  0  0  0
M  END
>  <Name_Molregno>
330115

>  <Dopamine transporter>
6.7

>  <Norepinephrine transporter>
6.7

>  <Serotonin transporter>
7

$$$$
330116
  Marvin  02231216192D 0   1.00000     0.00000     0

 24 26  0  0  1  0  0  0  0  0999 V2000
    1.5998   -1.2597    0.0000 O   0  0  0  0  0  0  0  0  0
    0.7753   -1.2885    0.0000 C   0  0  0  0  0  0  0  0  0
    0.3381   -0.5889    0.0000 N   0  0  0  0  0  0  0  0  0
   -0.4864   -0.6177    0.0000 C   0  0  0  0  0  0  0  0  0
   -0.8737   -1.3461    0.0000 C   0  0  0  0  0  0  0  0  0
   -0.4365   -2.0457    0.0000 C   0  0  0  0  0  0  0  0  0
    0.3880   -2.0169    0.0000 C   0  0  0  0  0  0  0  0  0
    1.1024   -2.4294    0.0000 C   0  0  0  0  0  0  0  0  0
    1.8169   -2.0169    0.0000 C   0  0  0  0  0  0  0  0  0
    2.5314   -2.4294    0.0000 C   0  0  0  0  0  0  0  0  0
    3.2458   -2.0169    0.0000 N   0  0  0  0  0  0  0  0  0
    3.9603   -2.4294    0.0000 C   0  0  0  0  0  0  0  0  0
    0.4455   -2.8399    0.0000 C   0  0  0  0  0  0  0  0  0
   -0.2384   -3.3013    0.0000 C   0  0  0  0  0  0  0  0  0
   -1.6982   -1.3749    0.0000 C   0  0  0  0  0  0  0  0  0
   -2.1354   -0.6753    0.0000 C   0  0  0  0  0  0  0  0  0
   -1.7481    0.0532    0.0000 C   0  0  0  0  0  0  0  0  0
   -0.9236    0.0820    0.0000 C   0  0  0  0  0  0  0  0  0
    0.7254    0.1396    0.0000 C   0  0  0  0  0  0  0  0  0
    0.2882    0.8392    0.0000 C   0  0  0  0  0  0  0  0  0
    0.6755    1.5676    0.0000 C   0  0  0  0  0  0  0  0  0
    1.5000    1.5964    0.0000 C   0  0  0  0  0  0  0  0  0
    1.9372    0.8968    0.0000 C   0  0  0  0  0  0  0  0  0
    1.5499    0.1683    0.0000 C   0  0  0  0  0  0  0  0  0
  1  2  2  0  0  0  0
  2  3  1  0  0  0  0
  2  7  1  0  0  0  0
  3  4  1  0  0  0  0
  3 19  1  0  0  0  0
  4  5  4  0  0  0  0
  4 18  4  0  0  0  0
  5  6  1  0  0  0  0
  5 15  4  0  0  0  0
  6  7  1  0  0  0  0
  7  8  1  0  0  0  0
  7 13  1  0  0  0  0
  8  9  1  0  0  0  0
  9 10  1  0  0  0  0
 10 11  1  0  0  0  0
 11 12  1  0  0  0  0
 13 14  1  0  0  0  0
 15 16  4  0  0  0  0
 16 17  4  0  0  0  0
 17 18  4  0  0  0  0
 19 20  4  0  0  0  0
 19 24  4  0  0  0  0
 20 21  4  0  0  0  0
 21 22  4  0  0  0  0
 22 23  4  0  0  0  0
 23 24  4  0  0  0  0
M  END
>  <Name_Molregno>
330116

>  <Dopamine transporter>
6.7

>  <Norepinephrine transporter>
8

>  <Serotonin transporter>
7

$$$$
330123
  Marvin  02231216192D 0   1.00000     0.00000     0

 25 27  0  0  1  0  0  0  0  0999 V2000
    0.8257   -1.5913    0.0000 O   0  0  0  0  0  0  0  0  0
    0.0012   -1.6201    0.0000 C   0  0  0  0  0  0  0  0  0
   -0.4360   -0.9205    0.0000 N   0  0  0  0  0  0  0  0  0
   -1.2605   -0.9493    0.0000 C   0  0  0  0  0  0  0  0  0
   -1.6478   -1.6777    0.0000 C   0  0  0  0  0  0  0  0  0
   -1.2106   -2.3773    0.0000 C   0  0  0  0  0  0  0  0  0
   -0.3861   -2.3485    0.0000 C   0  0  0  0  0  0  0  0  0
    0.3284   -2.7610    0.0000 C   0  0  0  0  0  0  0  0  0
    1.0428   -2.3485    0.0000 C   0  0  0  0  0  0  0  0  0
    1.7573   -2.7610    0.0000 C   0  0  0  0  0  0  0  0  0
    2.4718   -2.3485    0.0000 N   0  0  0  0  0  0  0  0  0
    3.1863   -2.7610    0.0000 C   0  0  0  0  0  0  0  0  0
   -0.3286   -3.1715    0.0000 C   0  0  0  0  0  0  0  0  0
    0.4130   -3.5332    0.0000 C   0  0  0  0  0  0  0  0  0
    0.4705   -4.3562    0.0000 C   0  0  0  0  0  0  0  0  0
   -2.4723   -1.7065    0.0000 C   0  0  0  0  0  0  0  0  0
   -2.9095   -1.0068    0.0000 C   0  0  0  0  0  0  0  0  0
   -2.5221   -0.2784    0.0000 C   0  0  0  0  0  0  0  0  0
   -1.6977   -0.2496    0.0000 C   0  0  0  0  0  0  0  0  0
   -0.0487   -0.1920    0.0000 C   0  0  0  0  0  0  0  0  0
   -0.4858    0.5076    0.0000 C   0  0  0  0  0  0  0  0  0
   -0.0985    1.2360    0.0000 C   0  0  0  0  0  0  0  0  0
    0.7260    1.2648    0.0000 C   0  0  0  0  0  0  0  0  0
    1.1632    0.5652    0.0000 C   0  0  0  0  0  0  0  0  0
    0.7758   -0.1632    0.0000 C   0  0  0  0  0  0  0  0  0
  1  2  2  0  0  0  0
  2  3  1  0  0  0  0
  2  7  1  0  0  0  0
  3  4  1  0  0  0  0
  3 20  1  0  0  0  0
  4  5  4  0  0  0  0
  4 19  4  0  0  0  0
  5  6  1  0  0  0  0
  5 16  4  0  0  0  0
  6  7  1  0  0  0  0
  7  8  1  0  0  0  0
  7 13  1  0  0  0  0
  8  9  1  0  0  0  0
  9 10  1  0  0  0  0
 10 11  1  0  0  0  0
 11 12  1  0  0  0  0
 13 14  1  0  0  0  0
 14 15  1  0  0  0  0
 16 17  4  0  0  0  0
 17 18  4  0  0  0  0
 18 19  4  0  0  0  0
 20 21  4  0  0  0  0
 20 25  4  0  0  0  0
 21 22  4  0  0  0  0
 22 23  4  0  0  0  0
 23 24  4  0  0  0  0
 24 25  4  0  0  0  0
M  END
>  <Name_Molregno>
330123

>  <Dopamine transporter>
6.7

>  <Norepinephrine transporter>
8.15

>  <Serotonin transporter>
7

$$$$
330124
  Marvin  02231216192D 0   1.00000     0.00000     0

 25 27  0  0  1  0  0  0  0  0999 V2000
    1.1172   -1.4985    0.0000 O   0  0  0  0  0  0  0  0  0
    0.2927   -1.5273    0.0000 C   0  0  0  0  0  0  0  0  0
   -0.1445   -0.8277    0.0000 N   0  0  0  0  0  0  0  0  0
   -0.9690   -0.8565    0.0000 C   0  0  0  0  0  0  0  0  0
   -1.3563   -1.5849    0.0000 C   0  0  0  0  0  0  0  0  0
   -0.9191   -2.2845    0.0000 C   0  0  0  0  0  0  0  0  0
   -0.0946   -2.2557    0.0000 C   0  0  0  0  0  0  0  0  0
    0.6198   -2.6682    0.0000 C   0  0  0  0  0  0  0  0  0
    1.3343   -2.2557    0.0000 C   0  0  0  0  0  0  0  0  0
    2.0488   -2.6682    0.0000 C   0  0  0  0  0  0  0  0  0
    2.7633   -2.2557    0.0000 N   0  0  0  0  0  0  0  0  0
    3.4777   -2.6682    0.0000 C   0  0  0  0  0  0  0  0  0
   -0.0371   -3.0787    0.0000 C   0  0  0  0  0  0  0  0  0
   -0.7210   -3.5401    0.0000 C   0  0  0  0  0  0  0  0  0
   -2.1808   -1.6137    0.0000 C   0  0  0  0  0  0  0  0  0
   -2.6180   -0.9140    0.0000 C   0  0  0  0  0  0  0  0  0
   -2.2307   -0.1856    0.0000 C   0  0  0  0  0  0  0  0  0
   -1.4062   -0.1568    0.0000 C   0  0  0  0  0  0  0  0  0
    0.2428   -0.0992    0.0000 C   0  0  0  0  0  0  0  0  0
   -0.1944    0.6004    0.0000 C   0  0  0  0  0  0  0  0  0
    0.1929    1.3288    0.0000 C   0  0  0  0  0  0  0  0  0
    1.0174    1.3576    0.0000 C   0  0  0  0  0  0  0  0  0
    1.4546    0.6580    0.0000 C   0  0  0  0  0  0  0  0  0
    1.0673   -0.0704    0.0000 C   0  0  0  0  0  0  0  0  0
    1.4048    2.0861    0.0000 C   0  0  0  0  0  0  0  0  0
  1  2  2  0  0  0  0
  2  3  1  0  0  0  0
  2  7  1  0  0  0  0
  3  4  1  0  0  0  0
  3 19  1  0  0  0  0
  4  5  4  0  0  0  0
  4 18  4  0  0  0  0
  5  6  1  0  0  0  0
  5 15  4  0  0  0  0
  6  7  1  0  0  0  0
  7  8  1  0  0  0  0
  7 13  1  0  0  0  0
  8  9  1  0  0  0  0
  9 10  1  0  0  0  0
 10 11  1  0  0  0  0
 11 12  1  0  0  0  0
 13 14  1  0  0  0  0
 15 16  4  0  0  0  0
 16 17  4  0  0  0  0
 17 18  4  0  0  0  0
 19 20  4  0  0  0  0
 19 24  4  0  0  0  0
 20 21  4  0  0  0  0
 21 22  4  0  0  0  0
 22 23  4  0  0  0  0
 22 25  1  0  0  0  0
 23 24  4  0  0  0  0
M  END
>  <Name_Molregno>
330124

>  <Dopamine transporter>
6.7

>  <Norepinephrine transporter>
7.77

>  <Serotonin transporter>
7

$$$$
331966
  Marvin  02231216192D 0   1.00000     0.00000     0

 70 77  0  0  1  0  0  0  0  0999 V2000
   18.5527    5.7186    0.0000 Cl  0  0  0  0  0  0  0  0  0
   17.8446    6.1419    0.0000 C   0  0  0  0  0  0  0  0  0
   17.1240    5.7403    0.0000 C   0  0  0  0  0  0  0  0  0
   16.4158    6.1636    0.0000 C   0  0  0  0  0  0  0  0  0
   16.4284    6.9885    0.0000 C   0  0  0  0  0  0  0  0  0
   17.1490    7.3901    0.0000 C   0  0  0  0  0  0  0  0  0
   17.8572    6.9668    0.0000 C   0  0  0  0  0  0  0  0  0
   18.5778    7.3684    0.0000 Cl  0  0  0  0  0  0  0  0  0
   15.6952    5.7620    0.0000 C   0  0  0  0  0  0  0  0  0
   14.8759    5.6354    0.0000 C   0  0  0  0  0  0  0  0  0
   14.8782    4.7065    0.0000 C   0  0  0  0  0  0  0  0  0
   14.4304    4.1522    0.0000 N   0  0  0  0  0  0  0  0  0
   15.2454    4.2803    0.0000 C   0  0  0  0  0  0  0  0  0
   15.9502    3.7503    0.0000 C   0  0  0  0  0  0  0  0  0
   15.5822    4.3759    0.0000 C   0  0  0  0  0  0  0  0  0
   15.2592    5.2519    0.0000 C   0  0  0  0  0  0  0  0  0
   16.0311    4.9607    0.0000 C   0  0  0  0  0  0  0  0  0
   16.6692    5.4836    0.0000 O   0  0  0  0  0  0  0  0  0
   17.4411    5.1924    0.0000 C   0  0  0  0  0  0  0  0  0
   16.1649    4.1466    0.0000 O   0  0  0  0  0  0  0  0  0
   13.7159    3.7397    0.0000 C   0  0  0  0  0  0  0  0  0
   13.7159    2.9147    0.0000 C   0  0  0  0  0  0  0  0  0
   13.0015    2.5022    0.0000 N   0  0  0  0  0  0  0  0  0
   13.0015    1.6772    0.0000 C   0  0  0  0  0  0  0  0  0
   13.7159    1.2647    0.0000 O   0  0  0  0  0  0  0  0  0
   12.2870    1.2647    0.0000 C   0  0  0  0  0  0  0  0  0
   12.2870    0.4397    0.0000 C   0  0  0  0  0  0  0  0  0
   11.5725    0.0272    0.0000 C   0  0  0  0  0  0  0  0  0
   10.8580    0.4397    0.0000 C   0  0  0  0  0  0  0  0  0
   10.8580    1.2647    0.0000 C   0  0  0  0  0  0  0  0  0
   11.5725    1.6772    0.0000 C   0  0  0  0  0  0  0  0  0
   10.1436    0.0272    0.0000 C   0  0  0  0  0  0  0  0  0
   10.1436   -0.7978    0.0000 N   0  0  0  0  0  0  0  0  0
    9.4291   -1.2103    0.0000 S   0  0  0  0  0  0  0  0  0
    9.0166   -0.4959    0.0000 O   0  0  0  0  0  0  0  0  0
    9.8416   -1.9248    0.0000 O   0  0  0  0  0  0  0  0  0
    8.7146   -1.6228    0.0000 C   0  0  0  0  0  0  0  0  0
    8.7146   -2.4478    0.0000 C   0  0  0  0  0  0  0  0  0
    8.0002   -2.8603    0.0000 C   0  0  0  0  0  0  0  0  0
    8.0002   -3.6853    0.0000 S   0  0  0  0  0  0  0  0  0
    8.0002   -4.5103    0.0000 O   0  0  0  0  0  0  0  0  0
    7.1752   -3.6853    0.0000 O   0  0  0  0  0  0  0  0  0
    8.8252   -3.6853    0.0000 O   0  0  0  0  0  0  0  0  0
    7.2857   -2.4478    0.0000 C   0  0  0  0  0  0  0  0  0
    7.2857   -1.6228    0.0000 C   0  0  0  0  0  0  0  0  0
    8.0002   -1.2103    0.0000 C   0  0  0  0  0  0  0  0  0
    6.5712   -2.8603    0.0000 C   0  0  0  0  0  0  0  0  0
    6.5712   -3.6853    0.0000 C   0  0  0  0  0  0  0  0  0
    5.8567   -4.0978    0.0000 C   0  0  0  0  0  0  0  0  0
    5.1423   -3.6853    0.0000 O   0  0  0  0  0  0  0  0  0
    5.1423   -2.8603    0.0000 C   0  0  0  0  0  0  0  0  0
    4.4278   -2.4478    0.0000 C   0  0  0  0  0  0  0  0  0
    4.4278   -1.6228    0.0000 C   0  0  0  0  0  0  0  0  0
    3.7133   -1.2103    0.0000 N   0  3  0  0  0  0  0  0  0
    3.7133   -0.3853    0.0000 C   0  0  0  0  0  0  0  0  0
    2.9989    0.0272    0.0000 C   0  0  0  0  0  0  0  0  0
    2.9989   -1.6228    0.0000 C   0  0  0  0  0  0  0  0  0
    2.2844   -1.2103    0.0000 C   0  0  0  0  0  0  0  0  0
    5.1423   -1.2103    0.0000 C   0  0  0  0  0  0  0  0  0
    5.8567   -1.6228    0.0000 C   0  0  0  0  0  0  0  0  0
    5.8567   -2.4478    0.0000 C   0  0  0  0  0  0  0  0  0
    5.8567   -4.9228    0.0000 C   0  0  0  0  0  0  0  0  0
    6.5712   -5.3353    0.0000 C   0  0  0  0  0  0  0  0  0
    6.5712   -6.1603    0.0000 N   0  0  0  0  0  0  0  0  0
    7.2857   -6.5728    0.0000 C   0  0  0  0  0  0  0  0  0
    7.2857   -7.3978    0.0000 C   0  0  0  0  0  0  0  0  0
    5.8567   -6.5728    0.0000 C   0  0  0  0  0  0  0  0  0
    5.1423   -6.1603    0.0000 C   0  0  0  0  0  0  0  0  0
    7.2857   -4.9228    0.0000 C   0  0  0  0  0  0  0  0  0
    7.2857   -4.0978    0.0000 C   0  0  0  0  0  0  0  0  0
  1  2  1  0  0  0  0
  2  3  4  0  0  0  0
  2  7  4  0  0  0  0
  3  4  4  0  0  0  0
  4  5  4  0  0  0  0
  4  9  1  0  0  0  0
  5  6  4  0  0  0  0
  6  7  4  0  0  0  0
  7  8  1  0  0  0  0
  9 10  1  0  0  0  0
  9 16  1  0  0  0  0
 10 11  1  0  0  0  0
 11 12  1  0  0  0  0
 11 15  1  0  0  0  0
 12 13  1  0  0  0  0
 12 21  1  0  0  0  0
 13 14  1  0  0  0  0
 13 16  1  0  0  0  0
 14 15  1  0  0  0  0
 16 17  1  0  0  0  0
 17 18  1  0  0  0  0
 17 20  2  0  0  0  0
 18 19  1  0  0  0  0
 21 22  1  0  0  0  0
 22 23  1  0  0  0  0
 23 24  1  0  0  0  0
 24 25  2  0  0  0  0
 24 26  1  0  0  0  0
 26 27  1  0  0  0  0
 26 31  1  0  0  0  0
 27 28  1  0  0  0  0
 28 29  1  0  0  0  0
 29 30  1  0  0  0  0
 29 32  1  0  0  0  0
 30 31  1  0  0  0  0
 32 33  1  0  0  0  0
 33 34  1  0  0  0  0
 34 35  2  0  0  0  0
 34 36  2  0  0  0  0
 34 37  1  0  0  0  0
 37 38  4  0  0  0  0
 37 46  4  0  0  0  0
 38 39  4  0  0  0  0
 39 40  1  0  0  0  0
 39 44  4  0  0  0  0
 40 41  2  0  0  0  0
 40 42  2  0  0  0  0
 40 43  1  0  0  0  0
 44 45  4  0  0  0  0
 44 47  1  0  0  0  0
 45 46  4  0  0  0  0
 47 48  1  0  0  0  0
 47 61  2  0  0  0  0
 48 49  4  0  0  0  0
 48 70  4  0  0  0  0
 49 50  1  0  0  0  0
 49 62  4  0  0  0  0
 50 51  1  0  0  0  0
 51 52  2  0  0  0  0
 51 61  1  0  0  0  0
 52 53  1  0  0  0  0
 53 54  2  0  0  0  0
 53 59  1  0  0  0  0
 54 55  1  0  0  0  0
 54 57  1  0  0  0  0
 55 56  1  0  0  0  0
 57 58  1  0  0  0  0
 59 60  2  0  0  0  0
 60 61  1  0  0  0  0
 62 63  4  0  0  0  0
 63 64  1  0  0  0  0
 63 69  4  0  0  0  0
 64 65  1  0  0  0  0
 64 67  1  0  0  0  0
 65 66  1  0  0  0  0
 67 68  1  0  0  0  0
 69 70  4  0  0  0  0
M  CHG  1  54   1
M  END
>  <Name_Molregno>
331966

>  <Dopamine transporter>
6.36

>  <Norepinephrine transporter>
6.2

>  <Serotonin transporter>
6.15

$$$$
332003
  Marvin  02231216192D 0   1.00000     0.00000     0

 51 57  0  0  1  0  0  0  0  0999 V2000
  -14.9138   -1.2321    0.0000 Cl  0  0  0  0  0  0  0  0  0
  -14.2057   -1.6554    0.0000 C   0  0  0  0  0  0  0  0  0
  -13.4850   -1.2538    0.0000 C   0  0  0  0  0  0  0  0  0
  -12.7769   -1.6771    0.0000 C   0  0  0  0  0  0  0  0  0
  -12.7894   -2.5020    0.0000 C   0  0  0  0  0  0  0  0  0
  -13.5101   -2.9036    0.0000 C   0  0  0  0  0  0  0  0  0
  -14.2182   -2.4803    0.0000 C   0  0  0  0  0  0  0  0  0
  -14.9389   -2.8819    0.0000 Cl  0  0  0  0  0  0  0  0  0
  -12.0563   -1.2755    0.0000 C   0  0  0  0  0  0  0  0  0
  -11.2370   -1.1490    0.0000 C   0  0  0  0  0  0  0  0  0
  -11.2393   -0.2200    0.0000 C   0  0  0  0  0  0  0  0  0
  -10.7915    0.3343    0.0000 N   0  0  0  0  0  0  0  0  0
  -11.6065    0.2061    0.0000 C   0  0  0  0  0  0  0  0  0
  -12.3113    0.7361    0.0000 C   0  0  0  0  0  0  0  0  0
  -11.9433    0.1105    0.0000 C   0  0  0  0  0  0  0  0  0
  -11.6203   -0.7655    0.0000 C   0  0  0  0  0  0  0  0  0
  -12.3922   -0.4743    0.0000 C   0  0  0  0  0  0  0  0  0
  -13.0303   -0.9972    0.0000 O   0  0  0  0  0  0  0  0  0
  -13.8022   -0.7060    0.0000 C   0  0  0  0  0  0  0  0  0
  -12.5259    0.3398    0.0000 O   0  0  0  0  0  0  0  0  0
  -10.0770    0.7468    0.0000 C   0  0  0  0  0  0  0  0  0
   -9.3625    0.3343    0.0000 C   0  0  0  0  0  0  0  0  0
   -8.6481    0.7468    0.0000 N   0  0  0  0  0  0  0  0  0
   -7.9336    0.3343    0.0000 C   0  0  0  0  0  0  0  0  0
   -7.9336   -0.4907    0.0000 O   0  0  0  0  0  0  0  0  0
   -7.2191    0.7468    0.0000 C   0  0  0  0  0  0  0  0  0
   -6.5046    0.3343    0.0000 C   0  0  0  0  0  0  0  0  0
   -5.7902    0.7468    0.0000 C   0  0  0  0  0  0  0  0  0
   -5.0757    0.3343    0.0000 N   0  0  0  0  0  0  0  0  0
   -5.0757   -0.4907    0.0000 C   0  0  0  0  0  0  0  0  0
   -4.3612   -0.9032    0.0000 C   0  0  0  0  0  0  0  0  0
   -3.6468   -0.4907    0.0000 C   0  0  0  0  0  0  0  0  0
   -3.6468    0.3343    0.0000 C   0  0  0  0  0  0  0  0  0
   -4.3612    0.7468    0.0000 C   0  0  0  0  0  0  0  0  0
   -4.3612    1.5718    0.0000 C   0  0  0  0  0  0  0  0  0
   -3.6468    1.9843    0.0000 C   0  0  0  0  0  0  0  0  0
   -2.9323    1.5718    0.0000 C   0  0  0  0  0  0  0  0  0
   -2.2178    1.9843    0.0000 C   0  0  0  0  0  0  0  0  0
   -2.2178    2.8093    0.0000 C   0  0  0  0  0  0  0  0  0
   -2.9323    3.2218    0.0000 C   0  0  0  0  0  0  0  0  0
   -2.9323    4.0468    0.0000 C   0  0  0  0  0  0  0  0  0
   -2.2178    4.4593    0.0000 C   0  0  0  0  0  0  0  0  0
   -2.2178    5.2843    0.0000 N   0  3  0  0  0  0  0  0  0
   -1.5033    5.6968    0.0000 C   0  0  0  0  0  0  0  0  0
   -2.9323    5.6968    0.0000 C   0  0  0  0  0  0  0  0  0
   -1.5033    4.0468    0.0000 C   0  0  0  0  0  0  0  0  0
   -1.5033    3.2218    0.0000 C   0  0  0  0  0  0  0  0  0
   -3.6468    2.8093    0.0000 C   0  0  0  0  0  0  0  0  0
   -4.4713    2.8381    0.0000 C   0  0  0  0  0  0  0  0  0
   -4.0839    3.5089    0.0000 C   0  0  0  0  0  0  0  0  0
   -2.9323    0.7468    0.0000 C   0  0  0  0  0  0  0  0  0
  1  2  1  0  0  0  0
  2  3  4  0  0  0  0
  2  7  4  0  0  0  0
  3  4  4  0  0  0  0
  4  5  4  0  0  0  0
  4  9  1  0  0  0  0
  5  6  4  0  0  0  0
  6  7  4  0  0  0  0
  7  8  1  0  0  0  0
  9 10  1  0  0  0  0
  9 16  1  0  0  0  0
 10 11  1  0  0  0  0
 11 12  1  0  0  0  0
 11 15  1  0  0  0  0
 12 13  1  0  0  0  0
 12 21  1  0  0  0  0
 13 14  1  0  0  0  0
 13 16  1  0  0  0  0
 14 15  1  0  0  0  0
 16 17  1  0  0  0  0
 17 18  1  0  0  0  0
 17 20  2  0  0  0  0
 18 19  1  0  0  0  0
 21 22  1  0  0  0  0
 22 23  1  0  0  0  0
 23 24  1  0  0  0  0
 24 25  2  0  0  0  0
 24 26  1  0  0  0  0
 26 27  1  0  0  0  0
 27 28  1  0  0  0  0
 28 29  1  0  0  0  0
 29 30  1  0  0  0  0
 29 34  1  0  0  0  0
 30 31  1  0  0  0  0
 31 32  1  0  0  0  0
 32 33  1  0  0  0  0
 33 34  4  0  0  0  0
 33 51  4  0  0  0  0
 34 35  4  0  0  0  0
 35 36  4  0  0  0  0
 36 37  4  0  0  0  0
 36 48  1  0  0  0  0
 37 38  1  0  0  0  0
 37 51  4  0  0  0  0
 38 39  2  0  0  0  0
 39 40  1  0  0  0  0
 39 47  1  0  0  0  0
 40 41  2  0  0  0  0
 40 48  1  0  0  0  0
 41 42  1  0  0  0  0
 42 43  2  0  0  0  0
 42 46  1  0  0  0  0
 43 44  1  0  0  0  0
 43 45  1  0  0  0  0
 46 47  2  0  0  0  0
 48 49  1  0  0  0  0
 48 50  1  0  0  0  0
M  CHG  1  43   1
M  END
>  <Name_Molregno>
332003

>  <Dopamine transporter>
6.95

>  <Norepinephrine transporter>
6.51

>  <Serotonin transporter>
6.64

$$$$
332046
  Marvin  02231216192D 0   1.00000     0.00000     0

 68 74  0  0  1  0  0  0  0  0999 V2000
   17.2465    2.4297    0.0000 Cl  0  0  0  0  0  0  0  0  0
   17.1004    3.2416    0.0000 C   0  0  0  0  0  0  0  0  0
   16.3241    3.5210    0.0000 C   0  0  0  0  0  0  0  0  0
   16.1780    4.3330    0.0000 C   0  0  0  0  0  0  0  0  0
   16.8081    4.8655    0.0000 C   0  0  0  0  0  0  0  0  0
   17.5844    4.5861    0.0000 C   0  0  0  0  0  0  0  0  0
   17.7305    3.7741    0.0000 C   0  0  0  0  0  0  0  0  0
   18.5067    3.4947    0.0000 Cl  0  0  0  0  0  0  0  0  0
   15.4018    4.6124    0.0000 C   0  0  0  0  0  0  0  0  0
   14.5728    4.6045    0.0000 C   0  0  0  0  0  0  0  0  0
   14.4245    5.5215    0.0000 C   0  0  0  0  0  0  0  0  0
   13.8927    5.9959    0.0000 N   0  0  0  0  0  0  0  0  0
   14.7177    6.0016    0.0000 C   0  0  0  0  0  0  0  0  0
   15.3273    6.6388    0.0000 C   0  0  0  0  0  0  0  0  0
   15.0655    5.9618    0.0000 C   0  0  0  0  0  0  0  0  0
   14.8889    5.0451    0.0000 C   0  0  0  0  0  0  0  0  0
   13.9853    4.6205    0.0000 C   0  0  0  0  0  0  0  0  0
   14.0471    3.7493    0.0000 O   0  0  0  0  0  0  0  0  0
   14.5510    3.0812    0.0000 C   0  0  0  0  0  0  0  0  0
   14.8852    2.3030    0.0000 C   0  0  0  0  0  0  0  0  0
   14.2337    1.7923    0.0000 N   0  0  0  0  0  0  0  0  0
   13.4293    2.0414    0.0000 C   0  0  0  0  0  0  0  0  0
   13.0935    2.8128    0.0000 O   0  0  0  0  0  0  0  0  0
   12.7090    1.5591    0.0000 C   0  0  0  0  0  0  0  0  0
   12.0077    1.9998    0.0000 C   0  0  0  0  0  0  0  0  0
   11.1890    2.0632    0.0000 C   0  0  0  0  0  0  0  0  0
   10.8602    2.8253    0.0000 C   0  0  0  0  0  0  0  0  0
   10.0675    2.5943    0.0000 C   0  0  0  0  0  0  0  0  0
    9.2447    2.5994    0.0000 N   0  0  0  0  0  0  0  0  0
    8.5386    2.1373    0.0000 S   0  0  0  0  0  0  0  0  0
    9.0066    1.4261    0.0000 O   0  0  0  0  0  0  0  0  0
    8.2423    2.9317    0.0000 O   0  0  0  0  0  0  0  0  0
    7.7441    1.7451    0.0000 C   0  0  0  0  0  0  0  0  0
    7.0297    2.1576    0.0000 C   0  0  0  0  0  0  0  0  0
    6.3152    1.7451    0.0000 C   0  0  0  0  0  0  0  0  0
    6.0869    2.6071    0.0000 S   0  0  0  0  0  0  0  0  0
    5.3610    3.0579    0.0000 O   0  0  0  0  0  0  0  0  0
    5.9936    3.4598    0.0000 O   0  0  0  0  0  0  0  0  0
    6.3989    3.4281    0.0000 O   0  0  0  0  0  0  0  0  0
    6.3152    0.9201    0.0000 C   0  0  0  0  0  0  0  0  0
    7.0297    0.5076    0.0000 C   0  0  0  0  0  0  0  0  0
    7.7441    0.9201    0.0000 C   0  0  0  0  0  0  0  0  0
    5.6007    0.5076    0.0000 C   0  0  0  0  0  0  0  0  0
    5.6007   -0.3174    0.0000 C   0  0  0  0  0  0  0  0  0
    4.8863   -0.7299    0.0000 C   0  0  0  0  0  0  0  0  0
    4.1718   -0.3174    0.0000 O   0  0  0  0  0  0  0  0  0
    4.1718    0.5076    0.0000 C   0  0  0  0  0  0  0  0  0
    3.4573    0.9201    0.0000 C   0  0  0  0  0  0  0  0  0
    3.4573    1.7451    0.0000 C   0  0  0  0  0  0  0  0  0
    2.7147    2.1877    0.0000 N   0  3  0  0  0  0  0  0  0
    1.9216    1.8151    0.0000 C   0  0  0  0  0  0  0  0  0
    1.0921    1.7539    0.0000 C   0  0  0  0  0  0  0  0  0
    2.4003    3.0069    0.0000 C   0  0  0  0  0  0  0  0  0
    2.2363    3.8245    0.0000 C   0  0  0  0  0  0  0  0  0
    4.1718    2.1576    0.0000 C   0  0  0  0  0  0  0  0  0
    4.8863    1.7451    0.0000 C   0  0  0  0  0  0  0  0  0
    4.8863    0.9201    0.0000 C   0  0  0  0  0  0  0  0  0
    4.8863   -1.5549    0.0000 C   0  0  0  0  0  0  0  0  0
    5.6007   -1.9674    0.0000 C   0  0  0  0  0  0  0  0  0
    5.5827   -2.8361    0.0000 N   0  0  0  0  0  0  0  0  0
    6.2302   -3.4288    0.0000 C   0  0  0  0  0  0  0  0  0
    6.8376   -3.9990    0.0000 C   0  0  0  0  0  0  0  0  0
    4.9466   -3.4432    0.0000 C   0  0  0  0  0  0  0  0  0
    4.3549   -4.0305    0.0000 C   0  0  0  0  0  0  0  0  0
    6.3152   -1.5549    0.0000 C   0  0  0  0  0  0  0  0  0
    6.3152   -0.7299    0.0000 C   0  0  0  0  0  0  0  0  0
   13.0886    4.5837    0.0000 O   0  0  0  0  0  0  0  0  0
   13.1208    6.2870    0.0000 C   0  0  0  0  0  0  0  0  0
  1  2  1  0  0  0  0
  2  3  4  0  0  0  0
  2  7  4  0  0  0  0
  3  4  4  0  0  0  0
  4  5  4  0  0  0  0
  4  9  1  0  0  0  0
  5  6  4  0  0  0  0
  6  7  4  0  0  0  0
  7  8  1  0  0  0  0
  9 10  1  0  0  0  0
  9 16  1  0  0  0  0
 10 11  1  0  0  0  0
 11 12  1  0  0  0  0
 11 15  1  0  0  0  0
 12 13  1  0  0  0  0
 12 68  1  0  0  0  0
 13 14  1  0  0  0  0
 13 16  1  0  0  0  0
 14 15  1  0  0  0  0
 16 17  1  0  0  0  0
 17 18  1  0  0  0  0
 17 67  2  0  0  0  0
 18 19  1  0  0  0  0
 19 20  1  0  0  0  0
 20 21  1  0  0  0  0
 21 22  1  0  0  0  0
 22 23  2  0  0  0  0
 22 24  1  0  0  0  0
 24 25  1  0  0  0  0
 25 26  1  0  0  0  0
 26 27  1  0  0  0  0
 27 28  1  0  0  0  0
 28 29  1  0  0  0  0
 29 30  1  0  0  0  0
 30 31  2  0  0  0  0
 30 32  2  0  0  0  0
 30 33  1  0  0  0  0
 33 34  4  0  0  0  0
 33 42  4  0  0  0  0
 34 35  4  0  0  0  0
 35 36  1  0  0  0  0
 35 40  4  0  0  0  0
 36 37  2  0  0  0  0
 36 38  2  0  0  0  0
 36 39  1  0  0  0  0
 40 41  4  0  0  0  0
 40 43  1  0  0  0  0
 41 42  4  0  0  0  0
 43 44  1  0  0  0  0
 43 57  2  0  0  0  0
 44 45  4  0  0  0  0
 44 66  4  0  0  0  0
 45 46  1  0  0  0  0
 45 58  4  0  0  0  0
 46 47  1  0  0  0  0
 47 48  2  0  0  0  0
 47 57  1  0  0  0  0
 48 49  1  0  0  0  0
 49 50  2  0  0  0  0
 49 55  1  0  0  0  0
 50 51  1  0  0  0  0
 50 53  1  0  0  0  0
 51 52  1  0  0  0  0
 53 54  1  0  0  0  0
 55 56  2  0  0  0  0
 56 57  1  0  0  0  0
 58 59  4  0  0  0  0
 59 60  1  0  0  0  0
 59 65  4  0  0  0  0
 60 61  1  0  0  0  0
 60 63  1  0  0  0  0
 61 62  1  0  0  0  0
 63 64  1  0  0  0  0
 65 66  4  0  0  0  0
M  CHG  1  50   1
M  END
>  <Name_Molregno>
332046

>  <Dopamine transporter>
7.36

>  <Norepinephrine transporter>
6.75

>  <Serotonin transporter>
5.83

$$$$
332087
  Marvin  02231216192D 0   1.00000     0.00000     0

 68 74  0  0  1  0  0  0  0  0999 V2000
   14.0236   -5.2790    0.0000 Cl  0  0  0  0  0  0  0  0  0
   14.7442   -4.8774    0.0000 C   0  0  0  0  0  0  0  0  0
   14.7568   -4.0525    0.0000 C   0  0  0  0  0  0  0  0  0
   15.4774   -3.6509    0.0000 C   0  0  0  0  0  0  0  0  0
   16.1855   -4.0742    0.0000 C   0  0  0  0  0  0  0  0  0
   16.1730   -4.8991    0.0000 C   0  0  0  0  0  0  0  0  0
   15.4524   -5.3007    0.0000 C   0  0  0  0  0  0  0  0  0
   15.4398   -6.1257    0.0000 Cl  0  0  0  0  0  0  0  0  0
   15.4900   -2.8260    0.0000 C   0  0  0  0  0  0  0  0  0
   15.7900   -2.0532    0.0000 C   0  0  0  0  0  0  0  0  0
   14.9843   -1.5908    0.0000 C   0  0  0  0  0  0  0  0  0
   14.7282   -0.9258    0.0000 N   0  0  0  0  0  0  0  0  0
   14.4317   -1.6957    0.0000 C   0  0  0  0  0  0  0  0  0
   13.6203   -2.0411    0.0000 C   0  0  0  0  0  0  0  0  0
   14.3461   -2.0352    0.0000 C   0  0  0  0  0  0  0  0  0
   15.2662   -2.1934    0.0000 C   0  0  0  0  0  0  0  0  0
   14.6281   -2.7163    0.0000 C   0  0  0  0  0  0  0  0  0
   14.7619   -3.5304    0.0000 O   0  0  0  0  0  0  0  0  0
   14.1237   -4.0533    0.0000 C   0  0  0  0  0  0  0  0  0
   13.8562   -2.4251    0.0000 O   0  0  0  0  0  0  0  0  0
   14.7282   -0.1008    0.0000 C   0  0  0  0  0  0  0  0  0
   14.0138    0.3117    0.0000 C   0  0  0  0  0  0  0  0  0
   14.0138    1.1367    0.0000 N   0  0  0  0  0  0  0  0  0
   13.2993    1.5492    0.0000 C   0  0  0  0  0  0  0  0  0
   12.5848    1.1367    0.0000 O   0  0  0  0  0  0  0  0  0
   13.2993    2.3742    0.0000 C   0  0  0  0  0  0  0  0  0
   12.5848    2.7867    0.0000 C   0  0  0  0  0  0  0  0  0
   12.5848    3.6117    0.0000 C   0  0  0  0  0  0  0  0  0
   11.8703    4.0242    0.0000 C   0  0  0  0  0  0  0  0  0
   11.8703    4.8492    0.0000 C   0  0  0  0  0  0  0  0  0
   11.1559    5.2617    0.0000 N   0  0  0  0  0  0  0  0  0
   10.4414    4.8492    0.0000 S   0  0  0  0  0  0  0  0  0
   10.0289    5.5637    0.0000 O   0  0  0  0  0  0  0  0  0
   10.8539    4.1347    0.0000 O   0  0  0  0  0  0  0  0  0
    9.7269    4.4367    0.0000 C   0  0  0  0  0  0  0  0  0
    9.7269    3.6117    0.0000 C   0  0  0  0  0  0  0  0  0
    9.0125    3.1992    0.0000 C   0  0  0  0  0  0  0  0  0
    9.0125    2.3742    0.0000 S   0  0  0  0  0  0  0  0  0
    9.0125    1.5492    0.0000 O   0  0  0  0  0  0  0  0  0
    8.1875    2.3742    0.0000 O   0  0  0  0  0  0  0  0  0
    9.8375    2.3742    0.0000 O   0  0  0  0  0  0  0  0  0
    8.2980    3.6117    0.0000 C   0  0  0  0  0  0  0  0  0
    8.2980    4.4367    0.0000 C   0  0  0  0  0  0  0  0  0
    9.0125    4.8492    0.0000 C   0  0  0  0  0  0  0  0  0
    7.5835    3.1992    0.0000 C   0  0  0  0  0  0  0  0  0
    7.5835    2.3742    0.0000 C   0  0  0  0  0  0  0  0  0
    6.8690    1.9617    0.0000 C   0  0  0  0  0  0  0  0  0
    6.1546    2.3742    0.0000 O   0  0  0  0  0  0  0  0  0
    6.1546    3.1992    0.0000 C   0  0  0  0  0  0  0  0  0
    5.4401    3.6117    0.0000 C   0  0  0  0  0  0  0  0  0
    5.4401    4.4367    0.0000 C   0  0  0  0  0  0  0  0  0
    4.7256    4.8492    0.0000 N   0  3  0  0  0  0  0  0  0
    4.7256    5.6742    0.0000 C   0  0  0  0  0  0  0  0  0
    4.0112    6.0867    0.0000 C   0  0  0  0  0  0  0  0  0
    4.0112    4.4367    0.0000 C   0  0  0  0  0  0  0  0  0
    3.2967    4.8492    0.0000 C   0  0  0  0  0  0  0  0  0
    6.1546    4.8492    0.0000 C   0  0  0  0  0  0  0  0  0
    6.8690    4.4367    0.0000 C   0  0  0  0  0  0  0  0  0
    6.8690    3.6117    0.0000 C   0  0  0  0  0  0  0  0  0
    6.8690    1.1367    0.0000 C   0  0  0  0  0  0  0  0  0
    7.5835    0.7242    0.0000 C   0  0  0  0  0  0  0  0  0
    7.5835   -0.1008    0.0000 N   0  0  0  0  0  0  0  0  0
    8.2980   -0.5133    0.0000 C   0  0  0  0  0  0  0  0  0
    8.2980   -1.3383    0.0000 C   0  0  0  0  0  0  0  0  0
    6.8690   -0.5133    0.0000 C   0  0  0  0  0  0  0  0  0
    6.1546   -0.1008    0.0000 C   0  0  0  0  0  0  0  0  0
    8.2980    1.1367    0.0000 C   0  0  0  0  0  0  0  0  0
    8.2980    1.9617    0.0000 C   0  0  0  0  0  0  0  0  0
  1  2  1  0  0  0  0
  2  3  4  0  0  0  0
  2  7  4  0  0  0  0
  3  4  4  0  0  0  0
  4  5  4  0  0  0  0
  4  9  1  0  0  0  0
  5  6  4  0  0  0  0
  6  7  4  0  0  0  0
  7  8  1  0  0  0  0
  9 10  1  0  0  0  0
  9 16  1  0  0  0  0
 10 11  1  0  0  0  0
 11 12  1  0  0  0  0
 11 15  1  0  0  0  0
 12 13  1  0  0  0  0
 12 21  1  0  0  0  0
 13 14  1  0  0  0  0
 13 16  1  0  0  0  0
 14 15  1  0  0  0  0
 16 17  1  0  0  0  0
 17 18  1  0  0  0  0
 17 20  2  0  0  0  0
 18 19  1  0  0  0  0
 21 22  1  0  0  0  0
 22 23  1  0  0  0  0
 23 24  1  0  0  0  0
 24 25  2  0  0  0  0
 24 26  1  0  0  0  0
 26 27  1  0  0  0  0
 27 28  1  0  0  0  0
 28 29  1  0  0  0  0
 29 30  1  0  0  0  0
 30 31  1  0  0  0  0
 31 32  1  0  0  0  0
 32 33  2  0  0  0  0
 32 34  2  0  0  0  0
 32 35  1  0  0  0  0
 35 36  4  0  0  0  0
 35 44  4  0  0  0  0
 36 37  4  0  0  0  0
 37 38  1  0  0  0  0
 37 42  4  0  0  0  0
 38 39  2  0  0  0  0
 38 40  2  0  0  0  0
 38 41  1  0  0  0  0
 42 43  4  0  0  0  0
 42 45  1  0  0  0  0
 43 44  4  0  0  0  0
 45 46  1  0  0  0  0
 45 59  2  0  0  0  0
 46 47  4  0  0  0  0
 46 68  4  0  0  0  0
 47 48  1  0  0  0  0
 47 60  4  0  0  0  0
 48 49  1  0  0  0  0
 49 50  2  0  0  0  0
 49 59  1  0  0  0  0
 50 51  1  0  0  0  0
 51 52  2  0  0  0  0
 51 57  1  0  0  0  0
 52 53  1  0  0  0  0
 52 55  1  0  0  0  0
 53 54  1  0  0  0  0
 55 56  1  0  0  0  0
 57 58  2  0  0  0  0
 58 59  1  0  0  0  0
 60 61  4  0  0  0  0
 61 62  1  0  0  0  0
 61 67  4  0  0  0  0
 62 63  1  0  0  0  0
 62 65  1  0  0  0  0
 63 64  1  0  0  0  0
 65 66  1  0  0  0  0
 67 68  4  0  0  0  0
M  CHG  1  52   1
M  END
>  <Name_Molregno>
332087

>  <Dopamine transporter>
7.47

>  <Norepinephrine transporter>
6.71

>  <Serotonin transporter>
6.41

$$$$
333333
  Marvin  02231216192D 0   1.00000     0.00000     0

 35 40  0  0  1  0  0  0  0  0999 V2000
    5.7593   -7.0371    0.0000 F   0  0  0  0  0  0  0  0  0
    5.2167   -6.4157    0.0000 C   0  0  0  0  0  0  0  0  0
    4.4072   -6.5749    0.0000 C   0  0  0  0  0  0  0  0  0
    3.8645   -5.9535    0.0000 C   0  0  0  0  0  0  0  0  0
    4.1314   -5.1728    0.0000 C   0  0  0  0  0  0  0  0  0
    4.9408   -5.0136    0.0000 C   0  0  0  0  0  0  0  0  0
    5.4835   -5.6350    0.0000 C   0  0  0  0  0  0  0  0  0
    3.5887   -4.5514    0.0000 C   0  0  0  0  0  0  0  0  0
    3.8555   -3.7708    0.0000 N   0  0  0  0  0  0  0  0  0
    3.3129   -3.1494    0.0000 C   0  0  0  0  0  0  0  0  0
    3.0187   -2.3743    0.0000 C   0  0  0  0  0  0  0  0  0
    2.1106   -2.5697    0.0000 C   0  0  0  0  0  0  0  0  0
    1.4753   -2.2469    0.0000 N   0  0  0  0  0  0  0  0  0
    1.7701   -3.0175    0.0000 C   0  0  0  0  0  0  0  0  0
    2.7233   -2.8290    0.0000 C   0  0  0  0  0  0  0  0  0
    1.3982   -3.8171    0.0000 C   0  0  0  0  0  0  0  0  0
    1.9336   -3.3270    0.0000 C   0  0  0  0  0  0  0  0  0
    0.9233   -1.6338    0.0000 C   0  0  0  0  0  0  0  0  0
    1.1782   -0.8492    0.0000 C   0  0  0  0  0  0  0  0  0
    0.6262   -0.2361    0.0000 C   0  0  0  0  0  0  0  0  0
    0.7977    0.5709    0.0000 C   0  0  0  0  0  0  0  0  0
    0.0832    0.9834    0.0000 C   0  0  0  0  0  0  0  0  0
   -0.5299    0.4313    0.0000 N   0  0  0  0  0  0  0  0  0
   -0.1943   -0.3223    0.0000 C   0  0  0  0  0  0  0  0  0
    0.0832    1.8084    0.0000 C   0  0  0  0  0  0  0  0  0
    0.7977    2.2209    0.0000 C   0  0  0  0  0  0  0  0  0
    1.5122    1.8084    0.0000 C   0  0  0  0  0  0  0  0  0
    1.5122    0.9834    0.0000 C   0  0  0  0  0  0  0  0  0
    2.7792   -4.7107    0.0000 C   0  0  0  0  0  0  0  0  0
    2.5124   -5.4913    0.0000 C   0  0  0  0  0  0  0  0  0
    1.7029   -5.6506    0.0000 C   0  0  0  0  0  0  0  0  0
    1.1602   -5.0292    0.0000 C   0  0  0  0  0  0  0  0  0
    0.3508   -5.1884    0.0000 F   0  0  0  0  0  0  0  0  0
    1.4271   -4.2485    0.0000 C   0  0  0  0  0  0  0  0  0
    2.2366   -4.0893    0.0000 C   0  0  0  0  0  0  0  0  0
  1  2  1  0  0  0  0
  2  3  4  0  0  0  0
  2  7  4  0  0  0  0
  3  4  4  0  0  0  0
  4  5  4  0  0  0  0
  5  6  4  0  0  0  0
  5  8  1  0  0  0  0
  6  7  4  0  0  0  0
  8  9  1  0  0  0  0
  8 29  1  0  0  0  0
  9 10  1  0  0  0  0
 10 11  1  0  0  0  0
 10 15  1  0  0  0  0
 11 12  1  0  0  0  0
 12 13  1  0  0  0  0
 12 17  1  0  0  0  0
 13 14  1  0  0  0  0
 13 18  1  0  0  0  0
 14 15  1  0  0  0  0
 14 16  1  0  0  0  0
 16 17  1  0  0  0  0
 18 19  1  0  0  0  0
 19 20  1  0  0  0  0
 20 21  4  0  0  0  0
 20 24  4  0  0  0  0
 21 22  4  0  0  0  0
 21 28  4  0  0  0  0
 22 23  4  0  0  0  0
 22 25  4  0  0  0  0
 23 24  4  0  0  0  0
 25 26  4  0  0  0  0
 26 27  4  0  0  0  0
 27 28  4  0  0  0  0
 29 30  4  0  0  0  0
 29 35  4  0  0  0  0
 30 31  4  0  0  0  0
 31 32  4  0  0  0  0
 32 33  1  0  0  0  0
 32 34  4  0  0  0  0
 34 35  4  0  0  0  0
M  STY  1   1 DAT
M  SAL   1  1  23
M  SDT   1 MRV_IMPLICIT_H                                        
M  SDD   1     0.0000    0.0000    DR    ALL  0       0  
M  SED   1 IMPL_H1
M  END
>  <Name_Molregno>
333333

>  <Muscarinic acetylcholine receptor M1>
6.38

>  <Norepinephrine transporter>
5.08

>  <Serotonin transporter>
6.46

$$$$
333339
  Marvin  02231216192D 0   1.00000     0.00000     0

 25 28  0  0  1  0  0  0  0  0999 V2000
    5.6365   -4.9901    0.0000 F   0  0  0  0  0  0  0  0  0
    5.2247   -4.2752    0.0000 C   0  0  0  0  0  0  0  0  0
    4.3997   -4.2744    0.0000 C   0  0  0  0  0  0  0  0  0
    3.9879   -3.5595    0.0000 C   0  0  0  0  0  0  0  0  0
    4.4011   -2.8455    0.0000 C   0  0  0  0  0  0  0  0  0
    5.2261   -2.8463    0.0000 C   0  0  0  0  0  0  0  0  0
    5.6379   -3.5611    0.0000 C   0  0  0  0  0  0  0  0  0
    3.9893   -2.1306    0.0000 C   0  0  0  0  0  0  0  0  0
    4.4025   -1.4165    0.0000 N   0  0  0  0  0  0  0  0  0
    3.9907   -0.7016    0.0000 C   0  0  0  0  0  0  0  0  0
    3.8525    0.1158    0.0000 C   0  0  0  0  0  0  0  0  0
    2.9237    0.1003    0.0000 C   0  0  0  0  0  0  0  0  0
    2.3631    0.5402    0.0000 N   0  0  0  0  0  0  0  0  0
    2.5028   -0.2729    0.0000 C   0  0  0  0  0  0  0  0  0
    3.4745   -0.2729    0.0000 C   0  0  0  0  0  0  0  0  0
    1.9829   -0.9852    0.0000 C   0  0  0  0  0  0  0  0  0
    2.6032   -0.6083    0.0000 C   0  0  0  0  0  0  0  0  0
    1.9405    1.2487    0.0000 C   0  0  0  0  0  0  0  0  0
    3.1643   -2.1298    0.0000 C   0  0  0  0  0  0  0  0  0
    2.7511   -2.8438    0.0000 C   0  0  0  0  0  0  0  0  0
    1.9261   -2.8430    0.0000 C   0  0  0  0  0  0  0  0  0
    1.5143   -2.1281    0.0000 C   0  0  0  0  0  0  0  0  0
    0.6893   -2.1273    0.0000 F   0  0  0  0  0  0  0  0  0
    1.9275   -1.4141    0.0000 C   0  0  0  0  0  0  0  0  0
    2.7525   -1.4149    0.0000 C   0  0  0  0  0  0  0  0  0
  1  2  1  0  0  0  0
  2  3  4  0  0  0  0
  2  7  4  0  0  0  0
  3  4  4  0  0  0  0
  4  5  4  0  0  0  0
  5  6  4  0  0  0  0
  5  8  1  0  0  0  0
  6  7  4  0  0  0  0
  8  9  1  0  0  0  0
  8 19  1  0  0  0  0
  9 10  1  0  0  0  0
 10 11  1  0  0  0  0
 10 15  1  0  0  0  0
 11 12  1  0  0  0  0
 12 13  1  0  0  0  0
 12 17  1  0  0  0  0
 13 14  1  0  0  0  0
 13 18  1  0  0  0  0
 14 15  1  0  0  0  0
 14 16  1  0  0  0  0
 16 17  1  0  0  0  0
 19 20  4  0  0  0  0
 19 25  4  0  0  0  0
 20 21  4  0  0  0  0
 21 22  4  0  0  0  0
 22 23  1  0  0  0  0
 22 24  4  0  0  0  0
 24 25  4  0  0  0  0
M  END
>  <Name_Molregno>
333339

>  <Muscarinic acetylcholine receptor M1>
7.67

>  <Norepinephrine transporter>
4.78

>  <Serotonin transporter>
4.68

$$$$
333569
  Marvin  02231216192D 0   1.00000     0.00000     0

 27 30  0  0  1  0  0  0  0  0999 V2000
    6.0555   -5.3328    0.0000 F   0  0  0  0  0  0  0  0  0
    5.6437   -4.6179    0.0000 C   0  0  0  0  0  0  0  0  0
    4.8187   -4.6171    0.0000 C   0  0  0  0  0  0  0  0  0
    4.4069   -3.9022    0.0000 C   0  0  0  0  0  0  0  0  0
    4.8201   -3.1882    0.0000 C   0  0  0  0  0  0  0  0  0
    5.6451   -3.1890    0.0000 C   0  0  0  0  0  0  0  0  0
    6.0569   -3.9039    0.0000 C   0  0  0  0  0  0  0  0  0
    4.4083   -2.4733    0.0000 C   0  0  0  0  0  0  0  0  0
    4.8215   -1.7592    0.0000 N   0  0  0  0  0  0  0  0  0
    4.4097   -1.0444    0.0000 C   0  0  0  0  0  0  0  0  0
    4.2715   -0.2270    0.0000 C   0  0  0  0  0  0  0  0  0
    3.3427   -0.2425    0.0000 C   0  0  0  0  0  0  0  0  0
    2.7821    0.1974    0.0000 N   0  0  0  0  0  0  0  0  0
    2.9218   -0.6157    0.0000 C   0  0  0  0  0  0  0  0  0
    3.8935   -0.6157    0.0000 C   0  0  0  0  0  0  0  0  0
    2.4019   -1.3280    0.0000 C   0  0  0  0  0  0  0  0  0
    3.0222   -0.9511    0.0000 C   0  0  0  0  0  0  0  0  0
    2.3595    0.9060    0.0000 C   0  0  0  0  0  0  0  0  0
    2.7618    1.6262    0.0000 C   0  0  0  0  0  0  0  0  0
    2.3392    2.3348    0.0000 N   0  0  0  0  0  0  0  0  0
    3.5833   -2.4725    0.0000 C   0  0  0  0  0  0  0  0  0
    3.1701   -3.1866    0.0000 C   0  0  0  0  0  0  0  0  0
    2.3451   -3.1857    0.0000 C   0  0  0  0  0  0  0  0  0
    1.9333   -2.4709    0.0000 C   0  0  0  0  0  0  0  0  0
    1.1083   -2.4701    0.0000 F   0  0  0  0  0  0  0  0  0
    2.3465   -1.7568    0.0000 C   0  0  0  0  0  0  0  0  0
    3.1715   -1.7576    0.0000 C   0  0  0  0  0  0  0  0  0
  1  2  1  0  0  0  0
  2  3  4  0  0  0  0
  2  7  4  0  0  0  0
  3  4  4  0  0  0  0
  4  5  4  0  0  0  0
  5  6  4  0  0  0  0
  5  8  1  0  0  0  0
  6  7  4  0  0  0  0
  8  9  1  0  0  0  0
  8 21  1  0  0  0  0
  9 10  1  0  0  0  0
 10 11  1  0  0  0  0
 10 15  1  0  0  0  0
 11 12  1  0  0  0  0
 12 13  1  0  0  0  0
 12 17  1  0  0  0  0
 13 14  1  0  0  0  0
 13 18  1  0  0  0  0
 14 15  1  0  0  0  0
 14 16  1  0  0  0  0
 16 17  1  0  0  0  0
 18 19  1  0  0  0  0
 19 20  1  0  0  0  0
 21 22  4  0  0  0  0
 21 27  4  0  0  0  0
 22 23  4  0  0  0  0
 23 24  4  0  0  0  0
 24 25  1  0  0  0  0
 24 26  4  0  0  0  0
 26 27  4  0  0  0  0
M  END
>  <Name_Molregno>
333569

>  <Muscarinic acetylcholine receptor M1>
5.68

>  <Norepinephrine transporter>
5.45

>  <Serotonin transporter>
4.96

$$$$
333688
  Marvin  02231216192D 0   1.00000     0.00000     0

 25 28  0  0  1  0  0  0  0  0999 V2000
    5.6365   -4.9901    0.0000 Cl  0  0  0  0  0  0  0  0  0
    5.2247   -4.2752    0.0000 C   0  0  0  0  0  0  0  0  0
    4.3997   -4.2744    0.0000 C   0  0  0  0  0  0  0  0  0
    3.9879   -3.5595    0.0000 C   0  0  0  0  0  0  0  0  0
    4.4011   -2.8455    0.0000 C   0  0  0  0  0  0  0  0  0
    5.2261   -2.8463    0.0000 C   0  0  0  0  0  0  0  0  0
    5.6379   -3.5611    0.0000 C   0  0  0  0  0  0  0  0  0
    3.9893   -2.1306    0.0000 C   0  0  0  0  0  0  0  0  0
    4.4025   -1.4165    0.0000 N   0  0  0  0  0  0  0  0  0
    3.9907   -0.7016    0.0000 C   0  0  0  0  0  0  0  0  0
    3.8525    0.1158    0.0000 C   0  0  0  0  0  0  0  0  0
    2.9237    0.1003    0.0000 C   0  0  0  0  0  0  0  0  0
    2.3631    0.5402    0.0000 N   0  0  0  0  0  0  0  0  0
    2.5028   -0.2729    0.0000 C   0  0  0  0  0  0  0  0  0
    3.4745   -0.2729    0.0000 C   0  0  0  0  0  0  0  0  0
    1.9829   -0.9852    0.0000 C   0  0  0  0  0  0  0  0  0
    2.6032   -0.6083    0.0000 C   0  0  0  0  0  0  0  0  0
    1.9405    1.2487    0.0000 C   0  0  0  0  0  0  0  0  0
    3.1643   -2.1298    0.0000 C   0  0  0  0  0  0  0  0  0
    2.7511   -2.8438    0.0000 C   0  0  0  0  0  0  0  0  0
    1.9261   -2.8430    0.0000 C   0  0  0  0  0  0  0  0  0
    1.5143   -2.1281    0.0000 C   0  0  0  0  0  0  0  0  0
    0.6893   -2.1273    0.0000 Cl  0  0  0  0  0  0  0  0  0
    1.9275   -1.4141    0.0000 C   0  0  0  0  0  0  0  0  0
    2.7525   -1.4149    0.0000 C   0  0  0  0  0  0  0  0  0
  1  2  1  0  0  0  0
  2  3  4  0  0  0  0
  2  7  4  0  0  0  0
  3  4  4  0  0  0  0
  4  5  4  0  0  0  0
  5  6  4  0  0  0  0
  5  8  1  0  0  0  0
  6  7  4  0  0  0  0
  8  9  1  0  0  0  0
  8 19  1  0  0  0  0
  9 10  1  0  0  0  0
 10 11  1  0  0  0  0
 10 15  1  0  0  0  0
 11 12  1  0  0  0  0
 12 13  1  0  0  0  0
 12 17  1  0  0  0  0
 13 14  1  0  0  0  0
 13 18  1  0  0  0  0
 14 15  1  0  0  0  0
 14 16  1  0  0  0  0
 16 17  1  0  0  0  0
 19 20  4  0  0  0  0
 19 25  4  0  0  0  0
 20 21  4  0  0  0  0
 21 22  4  0  0  0  0
 22 23  1  0  0  0  0
 22 24  4  0  0  0  0
 24 25  4  0  0  0  0
M  END
>  <Name_Molregno>
333688

>  <Muscarinic acetylcholine receptor M1>
7.3

>  <Norepinephrine transporter>
5.12

>  <Serotonin transporter>
5.38

$$$$
333695
  Marvin  02231216192D 0   1.00000     0.00000     0

 24 27  0  0  1  0  0  0  0  0999 V2000
    5.5592   -4.8574    0.0000 Cl  0  0  0  0  0  0  0  0  0
    5.1474   -4.1425    0.0000 C   0  0  0  0  0  0  0  0  0
    4.3224   -4.1417    0.0000 C   0  0  0  0  0  0  0  0  0
    3.9106   -3.4268    0.0000 C   0  0  0  0  0  0  0  0  0
    4.3238   -2.7127    0.0000 C   0  0  0  0  0  0  0  0  0
    5.1488   -2.7135    0.0000 C   0  0  0  0  0  0  0  0  0
    5.5606   -3.4284    0.0000 C   0  0  0  0  0  0  0  0  0
    3.9120   -1.9979    0.0000 C   0  0  0  0  0  0  0  0  0
    4.3252   -1.2838    0.0000 N   0  0  0  0  0  0  0  0  0
    3.9134   -0.5689    0.0000 C   0  0  0  0  0  0  0  0  0
    3.7752    0.2485    0.0000 C   0  0  0  0  0  0  0  0  0
    2.8464    0.2330    0.0000 C   0  0  0  0  0  0  0  0  0
    2.2858    0.6729    0.0000 N   0  0  0  0  0  0  0  0  0
    2.4255   -0.1402    0.0000 C   0  0  0  0  0  0  0  0  0
    3.3972   -0.1402    0.0000 C   0  0  0  0  0  0  0  0  0
    1.9056   -0.8525    0.0000 C   0  0  0  0  0  0  0  0  0
    2.5259   -0.4756    0.0000 C   0  0  0  0  0  0  0  0  0
    1.8632    1.3814    0.0000 C   0  0  0  0  0  0  0  0  0
    3.0870   -1.9970    0.0000 C   0  0  0  0  0  0  0  0  0
    2.6738   -2.7111    0.0000 C   0  0  0  0  0  0  0  0  0
    1.8488   -2.7103    0.0000 C   0  0  0  0  0  0  0  0  0
    1.4370   -1.9954    0.0000 C   0  0  0  0  0  0  0  0  0
    1.8502   -1.2814    0.0000 C   0  0  0  0  0  0  0  0  0
    2.6752   -1.2822    0.0000 C   0  0  0  0  0  0  0  0  0
  1  2  1  0  0  0  0
  2  3  4  0  0  0  0
  2  7  4  0  0  0  0
  3  4  4  0  0  0  0
  4  5  4  0  0  0  0
  5  6  4  0  0  0  0
  5  8  1  0  0  0  0
  6  7  4  0  0  0  0
  8  9  1  0  0  0  0
  8 19  1  0  0  0  0
  9 10  1  0  0  0  0
 10 11  1  0  0  0  0
 10 15  1  0  0  0  0
 11 12  1  0  0  0  0
 12 13  1  0  0  0  0
 12 17  1  0  0  0  0
 13 14  1  0  0  0  0
 13 18  1  0  0  0  0
 14 15  1  0  0  0  0
 14 16  1  0  0  0  0
 16 17  1  0  0  0  0
 19 20  4  0  0  0  0
 19 24  4  0  0  0  0
 20 21  4  0  0  0  0
 21 22  4  0  0  0  0
 22 23  4  0  0  0  0
 23 24  4  0  0  0  0
M  END
>  <Name_Molregno>
333695

>  <Muscarinic acetylcholine receptor M1>
8.03

>  <Norepinephrine transporter>
5.5

>  <Serotonin transporter>
4.87

$$$$
333761
  Marvin  02231216192D 0   1.00000     0.00000     0

 24 27  0  0  1  0  0  0  0  0999 V2000
    5.4131   -4.8746    0.0000 F   0  0  0  0  0  0  0  0  0
    5.0013   -4.1597    0.0000 C   0  0  0  0  0  0  0  0  0
    4.1763   -4.1589    0.0000 C   0  0  0  0  0  0  0  0  0
    3.7645   -3.4441    0.0000 C   0  0  0  0  0  0  0  0  0
    4.1777   -2.7300    0.0000 C   0  0  0  0  0  0  0  0  0
    5.0027   -2.7308    0.0000 C   0  0  0  0  0  0  0  0  0
    5.4145   -3.4457    0.0000 C   0  0  0  0  0  0  0  0  0
    3.7659   -2.0151    0.0000 C   0  0  0  0  0  0  0  0  0
    4.1791   -1.3010    0.0000 N   0  0  0  0  0  0  0  0  0
    3.7673   -0.5862    0.0000 C   0  0  0  0  0  0  0  0  0
    3.6291    0.2312    0.0000 C   0  0  0  0  0  0  0  0  0
    2.7003    0.2157    0.0000 C   0  0  0  0  0  0  0  0  0
    2.1397    0.6556    0.0000 N   0  0  0  0  0  0  0  0  0
    2.2794   -0.1575    0.0000 C   0  0  0  0  0  0  0  0  0
    3.2511   -0.1575    0.0000 C   0  0  0  0  0  0  0  0  0
    1.7595   -0.8698    0.0000 C   0  0  0  0  0  0  0  0  0
    2.3798   -0.4929    0.0000 C   0  0  0  0  0  0  0  0  0
    2.9409   -2.0143    0.0000 C   0  0  0  0  0  0  0  0  0
    2.5277   -2.7284    0.0000 C   0  0  0  0  0  0  0  0  0
    1.7027   -2.7275    0.0000 C   0  0  0  0  0  0  0  0  0
    1.2909   -2.0127    0.0000 C   0  0  0  0  0  0  0  0  0
    0.4659   -2.0119    0.0000 F   0  0  0  0  0  0  0  0  0
    1.7041   -1.2986    0.0000 C   0  0  0  0  0  0  0  0  0
    2.5291   -1.2994    0.0000 C   0  0  0  0  0  0  0  0  0
  1  2  1  0  0  0  0
  2  3  4  0  0  0  0
  2  7  4  0  0  0  0
  3  4  4  0  0  0  0
  4  5  4  0  0  0  0
  5  6  4  0  0  0  0
  5  8  1  0  0  0  0
  6  7  4  0  0  0  0
  8  9  1  0  0  0  0
  8 18  1  0  0  0  0
  9 10  1  0  0  0  0
 10 11  1  0  0  0  0
 10 15  1  0  0  0  0
 11 12  1  0  0  0  0
 12 13  1  0  0  0  0
 12 17  1  0  0  0  0
 13 14  1  0  0  0  0
 14 15  1  0  0  0  0
 14 16  1  0  0  0  0
 16 17  1  0  0  0  0
 18 19  4  0  0  0  0
 18 24  4  0  0  0  0
 19 20  4  0  0  0  0
 20 21  4  0  0  0  0
 21 22  1  0  0  0  0
 21 23  4  0  0  0  0
 23 24  4  0  0  0  0
M  END
>  <Name_Molregno>
333761

>  <Muscarinic acetylcholine receptor M1>
6.81

>  <Norepinephrine transporter>
6

>  <Serotonin transporter>
5.38

$$$$
333762
  Marvin  02231216192D 0   1.00000     0.00000     0

 27 30  0  0  1  0  0  0  0  0999 V2000
    6.0555   -5.3328    0.0000 F   0  0  0  0  0  0  0  0  0
    5.6437   -4.6179    0.0000 C   0  0  0  0  0  0  0  0  0
    4.8187   -4.6171    0.0000 C   0  0  0  0  0  0  0  0  0
    4.4069   -3.9022    0.0000 C   0  0  0  0  0  0  0  0  0
    4.8201   -3.1882    0.0000 C   0  0  0  0  0  0  0  0  0
    5.6451   -3.1890    0.0000 C   0  0  0  0  0  0  0  0  0
    6.0569   -3.9039    0.0000 C   0  0  0  0  0  0  0  0  0
    4.4083   -2.4733    0.0000 C   0  0  0  0  0  0  0  0  0
    4.8215   -1.7592    0.0000 N   0  0  0  0  0  0  0  0  0
    4.4097   -1.0444    0.0000 C   0  0  0  0  0  0  0  0  0
    4.2715   -0.2270    0.0000 C   0  0  0  0  0  0  0  0  0
    3.3427   -0.2425    0.0000 C   0  0  0  0  0  0  0  0  0
    2.7821    0.1974    0.0000 N   0  0  0  0  0  0  0  0  0
    2.9218   -0.6157    0.0000 C   0  0  0  0  0  0  0  0  0
    3.8935   -0.6157    0.0000 C   0  0  0  0  0  0  0  0  0
    2.4019   -1.3280    0.0000 C   0  0  0  0  0  0  0  0  0
    3.0222   -0.9511    0.0000 C   0  0  0  0  0  0  0  0  0
    2.3595    0.9060    0.0000 C   0  0  0  0  0  0  0  0  0
    2.7618    1.6262    0.0000 C   0  0  0  0  0  0  0  0  0
    2.3392    2.3348    0.0000 C   0  0  0  0  0  0  0  0  0
    3.5833   -2.4725    0.0000 C   0  0  0  0  0  0  0  0  0
    3.1701   -3.1866    0.0000 C   0  0  0  0  0  0  0  0  0
    2.3451   -3.1857    0.0000 C   0  0  0  0  0  0  0  0  0
    1.9333   -2.4709    0.0000 C   0  0  0  0  0  0  0  0  0
    1.1083   -2.4701    0.0000 F   0  0  0  0  0  0  0  0  0
    2.3465   -1.7568    0.0000 C   0  0  0  0  0  0  0  0  0
    3.1715   -1.7576    0.0000 C   0  0  0  0  0  0  0  0  0
  1  2  1  0  0  0  0
  2  3  4  0  0  0  0
  2  7  4  0  0  0  0
  3  4  4  0  0  0  0
  4  5  4  0  0  0  0
  5  6  4  0  0  0  0
  5  8  1  0  0  0  0
  6  7  4  0  0  0  0
  8  9  1  0  0  0  0
  8 21  1  0  0  0  0
  9 10  1  0  0  0  0
 10 11  1  0  0  0  0
 10 15  1  0  0  0  0
 11 12  1  0  0  0  0
 12 13  1  0  0  0  0
 12 17  1  0  0  0  0
 13 14  1  0  0  0  0
 13 18  1  0  0  0  0
 14 15  1  0  0  0  0
 14 16  1  0  0  0  0
 16 17  1  0  0  0  0
 18 19  1  0  0  0  0
 19 20  2  0  0  0  0
 21 22  4  0  0  0  0
 21 27  4  0  0  0  0
 22 23  4  0  0  0  0
 23 24  4  0  0  0  0
 24 25  1  0  0  0  0
 24 26  4  0  0  0  0
 26 27  4  0  0  0  0
M  END
>  <Name_Molregno>
333762

>  <Muscarinic acetylcholine receptor M1>
6.89

>  <Norepinephrine transporter>
5.25

>  <Serotonin transporter>
5.41

$$$$
333774
  Marvin  02231216192D 0   1.00000     0.00000     0

 28 31  0  0  1  0  0  0  0  0999 V2000
    6.4725   -1.7233    0.0000 F   0  0  0  0  0  0  0  0  0
    6.0607   -1.0085    0.0000 C   0  0  0  0  0  0  0  0  0
    5.2357   -1.0077    0.0000 C   0  0  0  0  0  0  0  0  0
    4.8239   -0.2928    0.0000 C   0  0  0  0  0  0  0  0  0
    5.2371    0.4213    0.0000 C   0  0  0  0  0  0  0  0  0
    6.0621    0.4205    0.0000 C   0  0  0  0  0  0  0  0  0
    6.4739   -0.2944    0.0000 C   0  0  0  0  0  0  0  0  0
    4.8253    1.1362    0.0000 C   0  0  0  0  0  0  0  0  0
    5.2385    1.8502    0.0000 N   0  0  0  0  0  0  0  0  0
    4.8267    2.5651    0.0000 C   0  0  0  0  0  0  0  0  0
    4.6885    3.3825    0.0000 C   0  0  0  0  0  0  0  0  0
    3.7597    3.3670    0.0000 C   0  0  0  0  0  0  0  0  0
    3.1991    3.8069    0.0000 N   0  0  0  0  0  0  0  0  0
    3.3388    2.9938    0.0000 C   0  0  0  0  0  0  0  0  0
    4.3105    2.9938    0.0000 C   0  0  0  0  0  0  0  0  0
    2.8189    2.2815    0.0000 C   0  0  0  0  0  0  0  0  0
    3.4392    2.6584    0.0000 C   0  0  0  0  0  0  0  0  0
    2.7765    4.5154    0.0000 C   0  0  0  0  0  0  0  0  0
    1.9516    4.5037    0.0000 C   0  0  0  0  0  0  0  0  0
    1.5290    5.2123    0.0000 C   0  0  0  0  0  0  0  0  0
    0.7041    5.2005    0.0000 C   0  0  0  0  0  0  0  0  0
    4.0003    1.1370    0.0000 C   0  0  0  0  0  0  0  0  0
    3.5871    0.4229    0.0000 C   0  0  0  0  0  0  0  0  0
    2.7621    0.4237    0.0000 C   0  0  0  0  0  0  0  0  0
    2.3503    1.1386    0.0000 C   0  0  0  0  0  0  0  0  0
    1.5253    1.1394    0.0000 F   0  0  0  0  0  0  0  0  0
    2.7635    1.8527    0.0000 C   0  0  0  0  0  0  0  0  0
    3.5885    1.8519    0.0000 C   0  0  0  0  0  0  0  0  0
  1  2  1  0  0  0  0
  2  3  4  0  0  0  0
  2  7  4  0  0  0  0
  3  4  4  0  0  0  0
  4  5  4  0  0  0  0
  5  6  4  0  0  0  0
  5  8  1  0  0  0  0
  6  7  4  0  0  0  0
  8  9  1  0  0  0  0
  8 22  1  0  0  0  0
  9 10  1  0  0  0  0
 10 11  1  0  0  0  0
 10 15  1  0  0  0  0
 11 12  1  0  0  0  0
 12 13  1  0  0  0  0
 12 17  1  0  0  0  0
 13 14  1  0  0  0  0
 13 18  1  0  0  0  0
 14 15  1  0  0  0  0
 14 16  1  0  0  0  0
 16 17  1  0  0  0  0
 18 19  1  0  0  0  0
 19 20  1  0  0  0  0
 20 21  1  0  0  0  0
 22 23  4  0  0  0  0
 22 28  4  0  0  0  0
 23 24  4  0  0  0  0
 24 25  4  0  0  0  0
 25 26  1  0  0  0  0
 25 27  4  0  0  0  0
 27 28  4  0  0  0  0
M  END
>  <Name_Molregno>
333774

>  <Muscarinic acetylcholine receptor M1>
6.34

>  <Norepinephrine transporter>
5.53

>  <Serotonin transporter>
5.58

$$$$
333775
  Marvin  02231216192D 0   1.00000     0.00000     0

 34 38  0  0  1  0  0  0  0  0999 V2000
    8.3139   -6.3781    0.0000 F   0  0  0  0  0  0  0  0  0
    7.9022   -5.6632    0.0000 C   0  0  0  0  0  0  0  0  0
    7.0772   -5.6624    0.0000 C   0  0  0  0  0  0  0  0  0
    6.6654   -4.9475    0.0000 C   0  0  0  0  0  0  0  0  0
    7.0786   -4.2334    0.0000 C   0  0  0  0  0  0  0  0  0
    7.9036   -4.2342    0.0000 C   0  0  0  0  0  0  0  0  0
    8.3154   -4.9491    0.0000 C   0  0  0  0  0  0  0  0  0
    6.6668   -3.5186    0.0000 C   0  0  0  0  0  0  0  0  0
    7.0800   -2.8045    0.0000 N   0  0  0  0  0  0  0  0  0
    6.6682   -2.0896    0.0000 C   0  0  0  0  0  0  0  0  0
    6.5300   -1.2722    0.0000 C   0  0  0  0  0  0  0  0  0
    5.6012   -1.2877    0.0000 C   0  0  0  0  0  0  0  0  0
    5.0406   -0.8478    0.0000 N   0  0  0  0  0  0  0  0  0
    5.1803   -1.6609    0.0000 C   0  0  0  0  0  0  0  0  0
    6.1520   -1.6609    0.0000 C   0  0  0  0  0  0  0  0  0
    4.6604   -2.3732    0.0000 C   0  0  0  0  0  0  0  0  0
    5.2807   -1.9963    0.0000 C   0  0  0  0  0  0  0  0  0
    4.6180   -0.1393    0.0000 C   0  0  0  0  0  0  0  0  0
    3.7931   -0.1510    0.0000 C   0  0  0  0  0  0  0  0  0
    3.3704    0.5575    0.0000 C   0  0  0  0  0  0  0  0  0
    2.5455    0.5458    0.0000 C   0  0  0  0  0  0  0  0  0
    2.1229    1.2544    0.0000 C   0  0  0  0  0  0  0  0  0
    1.2980    1.2426    0.0000 C   0  0  0  0  0  0  0  0  0
    0.8754    1.9512    0.0000 C   0  0  0  0  0  0  0  0  0
    1.2777    2.6714    0.0000 C   0  0  0  0  0  0  0  0  0
    2.1026    2.6832    0.0000 C   0  0  0  0  0  0  0  0  0
    2.5252    1.9746    0.0000 C   0  0  0  0  0  0  0  0  0
    5.8418   -3.5177    0.0000 C   0  0  0  0  0  0  0  0  0
    5.4286   -4.2318    0.0000 C   0  0  0  0  0  0  0  0  0
    4.6036   -4.2310    0.0000 C   0  0  0  0  0  0  0  0  0
    4.1918   -3.5161    0.0000 C   0  0  0  0  0  0  0  0  0
    3.3668   -3.5153    0.0000 F   0  0  0  0  0  0  0  0  0
    4.6050   -2.8021    0.0000 C   0  0  0  0  0  0  0  0  0
    5.4300   -2.8029    0.0000 C   0  0  0  0  0  0  0  0  0
  1  2  1  0  0  0  0
  2  3  4  0  0  0  0
  2  7  4  0  0  0  0
  3  4  4  0  0  0  0
  4  5  4  0  0  0  0
  5  6  4  0  0  0  0
  5  8  1  0  0  0  0
  6  7  4  0  0  0  0
  8  9  1  0  0  0  0
  8 28  1  0  0  0  0
  9 10  1  0  0  0  0
 10 11  1  0  0  0  0
 10 15  1  0  0  0  0
 11 12  1  0  0  0  0
 12 13  1  0  0  0  0
 12 17  1  0  0  0  0
 13 14  1  0  0  0  0
 13 18  1  0  0  0  0
 14 15  1  0  0  0  0
 14 16  1  0  0  0  0
 16 17  1  0  0  0  0
 18 19  1  0  0  0  0
 19 20  1  0  0  0  0
 20 21  1  0  0  0  0
 21 22  1  0  0  0  0
 22 23  4  0  0  0  0
 22 27  4  0  0  0  0
 23 24  4  0  0  0  0
 24 25  4  0  0  0  0
 25 26  4  0  0  0  0
 26 27  4  0  0  0  0
 28 29  4  0  0  0  0
 28 34  4  0  0  0  0
 29 30  4  0  0  0  0
 30 31  4  0  0  0  0
 31 32  1  0  0  0  0
 31 33  4  0  0  0  0
 33 34  4  0  0  0  0
M  END
>  <Name_Molregno>
333775

>  <Muscarinic acetylcholine receptor M1>
6.36

>  <Norepinephrine transporter>
5.79

>  <Serotonin transporter>
6.3

$$$$
333819
  Marvin  02231216192D 0   1.00000     0.00000     0

 35 39  0  0  1  0  0  0  0  0999 V2000
    8.4566   -6.4663    0.0000 F   0  0  0  0  0  0  0  0  0
    8.0448   -5.7514    0.0000 C   0  0  0  0  0  0  0  0  0
    7.2198   -5.7506    0.0000 C   0  0  0  0  0  0  0  0  0
    6.8080   -5.0358    0.0000 C   0  0  0  0  0  0  0  0  0
    7.2212   -4.3217    0.0000 C   0  0  0  0  0  0  0  0  0
    8.0462   -4.3225    0.0000 C   0  0  0  0  0  0  0  0  0
    8.4580   -5.0374    0.0000 C   0  0  0  0  0  0  0  0  0
    6.8094   -3.6068    0.0000 C   0  0  0  0  0  0  0  0  0
    7.2226   -2.8928    0.0000 N   0  0  0  0  0  0  0  0  0
    6.8108   -2.1779    0.0000 C   0  0  0  0  0  0  0  0  0
    6.6726   -1.3605    0.0000 C   0  0  0  0  0  0  0  0  0
    5.7438   -1.3760    0.0000 C   0  0  0  0  0  0  0  0  0
    5.1832   -0.9361    0.0000 N   0  0  0  0  0  0  0  0  0
    5.3229   -1.7492    0.0000 C   0  0  0  0  0  0  0  0  0
    6.2946   -1.7492    0.0000 C   0  0  0  0  0  0  0  0  0
    4.8030   -2.4615    0.0000 C   0  0  0  0  0  0  0  0  0
    5.4233   -2.0846    0.0000 C   0  0  0  0  0  0  0  0  0
    4.7606   -0.2275    0.0000 C   0  0  0  0  0  0  0  0  0
    3.9357   -0.2393    0.0000 C   0  0  0  0  0  0  0  0  0
    3.5131    0.4693    0.0000 C   0  0  0  0  0  0  0  0  0
    3.9154    1.1895    0.0000 O   0  0  0  0  0  0  0  0  0
    2.6882    0.4576    0.0000 N   0  0  0  0  0  0  0  0  0
    2.2656    1.1661    0.0000 C   0  0  0  0  0  0  0  0  0
    1.4407    1.1544    0.0000 C   0  0  0  0  0  0  0  0  0
    1.0181    1.8629    0.0000 C   0  0  0  0  0  0  0  0  0
    1.4204    2.5832    0.0000 C   0  0  0  0  0  0  0  0  0
    2.2453    2.5949    0.0000 C   0  0  0  0  0  0  0  0  0
    2.6679    1.8864    0.0000 C   0  0  0  0  0  0  0  0  0
    5.9844   -3.6060    0.0000 C   0  0  0  0  0  0  0  0  0
    5.5712   -4.3201    0.0000 C   0  0  0  0  0  0  0  0  0
    4.7462   -4.3193    0.0000 C   0  0  0  0  0  0  0  0  0
    4.3344   -3.6044    0.0000 C   0  0  0  0  0  0  0  0  0
    3.5094   -3.6036    0.0000 F   0  0  0  0  0  0  0  0  0
    4.7476   -2.8903    0.0000 C   0  0  0  0  0  0  0  0  0
    5.5726   -2.8911    0.0000 C   0  0  0  0  0  0  0  0  0
  1  2  1  0  0  0  0
  2  3  4  0  0  0  0
  2  7  4  0  0  0  0
  3  4  4  0  0  0  0
  4  5  4  0  0  0  0
  5  6  4  0  0  0  0
  5  8  1  0  0  0  0
  6  7  4  0  0  0  0
  8  9  1  0  0  0  0
  8 29  1  0  0  0  0
  9 10  1  0  0  0  0
 10 11  1  0  0  0  0
 10 15  1  0  0  0  0
 11 12  1  0  0  0  0
 12 13  1  0  0  0  0
 12 17  1  0  0  0  0
 13 14  1  0  0  0  0
 13 18  1  0  0  0  0
 14 15  1  0  0  0  0
 14 16  1  0  0  0  0
 16 17  1  0  0  0  0
 18 19  1  0  0  0  0
 19 20  1  0  0  0  0
 20 21  2  0  0  0  0
 20 22  1  0  0  0  0
 22 23  1  0  0  0  0
 23 24  4  0  0  0  0
 23 28  4  0  0  0  0
 24 25  4  0  0  0  0
 25 26  4  0  0  0  0
 26 27  4  0  0  0  0
 27 28  4  0  0  0  0
 29 30  4  0  0  0  0
 29 35  4  0  0  0  0
 30 31  4  0  0  0  0
 31 32  4  0  0  0  0
 32 33  1  0  0  0  0
 32 34  4  0  0  0  0
 34 35  4  0  0  0  0
M  END
>  <Name_Molregno>
333819

>  <Muscarinic acetylcholine receptor M1>
5.6

>  <Norepinephrine transporter>
5.61

>  <Serotonin transporter>
6.22

$$$$
333825
  Marvin  02231216192D 0   1.00000     0.00000     0

 27 30  0  0  1  0  0  0  0  0999 V2000
    1.1528   -0.1793    0.0000 Cl  0  0  0  0  0  0  0  0  0
    1.5660    0.5348    0.0000 C   0  0  0  0  0  0  0  0  0
    1.1542    1.2496    0.0000 C   0  0  0  0  0  0  0  0  0
    1.5674    1.9637    0.0000 C   0  0  0  0  0  0  0  0  0
    2.3924    1.9629    0.0000 C   0  0  0  0  0  0  0  0  0
    2.8042    1.2480    0.0000 C   0  0  0  0  0  0  0  0  0
    2.3910    0.5339    0.0000 C   0  0  0  0  0  0  0  0  0
    2.8028   -0.1809    0.0000 Cl  0  0  0  0  0  0  0  0  0
    1.1556    2.6786    0.0000 C   0  0  0  0  0  0  0  0  0
    1.5688    3.3926    0.0000 N   0  0  0  0  0  0  0  0  0
    1.1570    4.1075    0.0000 C   0  0  0  0  0  0  0  0  0
    1.0188    4.9249    0.0000 C   0  0  0  0  0  0  0  0  0
    0.0900    4.9094    0.0000 C   0  0  0  0  0  0  0  0  0
   -0.4706    5.3493    0.0000 N   0  0  0  0  0  0  0  0  0
   -0.3309    4.5362    0.0000 C   0  0  0  0  0  0  0  0  0
    0.6408    4.5362    0.0000 C   0  0  0  0  0  0  0  0  0
   -0.8508    3.8239    0.0000 C   0  0  0  0  0  0  0  0  0
   -0.2305    4.2008    0.0000 C   0  0  0  0  0  0  0  0  0
   -0.8932    6.0579    0.0000 C   0  0  0  0  0  0  0  0  0
    0.3306    2.6794    0.0000 C   0  0  0  0  0  0  0  0  0
   -0.0826    1.9653    0.0000 C   0  0  0  0  0  0  0  0  0
   -0.9076    1.9661    0.0000 C   0  0  0  0  0  0  0  0  0
   -1.3208    1.2521    0.0000 Cl  0  0  0  0  0  0  0  0  0
   -1.3194    2.6810    0.0000 C   0  0  0  0  0  0  0  0  0
   -2.1444    2.6818    0.0000 Cl  0  0  0  0  0  0  0  0  0
   -0.9062    3.3951    0.0000 C   0  0  0  0  0  0  0  0  0
   -0.0812    3.3943    0.0000 C   0  0  0  0  0  0  0  0  0
  1  2  1  0  0  0  0
  2  3  4  0  0  0  0
  2  7  4  0  0  0  0
  3  4  4  0  0  0  0
  4  5  4  0  0  0  0
  4  9  1  0  0  0  0
  5  6  4  0  0  0  0
  6  7  4  0  0  0  0
  7  8  1  0  0  0  0
  9 10  1  0  0  0  0
  9 20  1  0  0  0  0
 10 11  1  0  0  0  0
 11 12  1  0  0  0  0
 11 16  1  0  0  0  0
 12 13  1  0  0  0  0
 13 14  1  0  0  0  0
 13 18  1  0  0  0  0
 14 15  1  0  0  0  0
 14 19  1  0  0  0  0
 15 16  1  0  0  0  0
 15 17  1  0  0  0  0
 17 18  1  0  0  0  0
 20 21  4  0  0  0  0
 20 27  4  0  0  0  0
 21 22  4  0  0  0  0
 22 23  1  0  0  0  0
 22 24  4  0  0  0  0
 24 25  1  0  0  0  0
 24 26  4  0  0  0  0
 26 27  4  0  0  0  0
M  END
>  <Name_Molregno>
333825

>  <Muscarinic acetylcholine receptor M1>
7.75

>  <Norepinephrine transporter>
6.59

>  <Serotonin transporter>
5.52

$$$$
333851
  Marvin  02231216192D 0   1.00000     0.00000     0

 26 29  0  0  1  0  0  0  0  0999 V2000
    5.5719   -4.9458    0.0000 F   0  0  0  0  0  0  0  0  0
    5.1601   -4.2309    0.0000 C   0  0  0  0  0  0  0  0  0
    4.3351   -4.2301    0.0000 C   0  0  0  0  0  0  0  0  0
    3.9233   -3.5152    0.0000 C   0  0  0  0  0  0  0  0  0
    4.3366   -2.8012    0.0000 C   0  0  0  0  0  0  0  0  0
    5.1616   -2.8020    0.0000 C   0  0  0  0  0  0  0  0  0
    5.5733   -3.5169    0.0000 C   0  0  0  0  0  0  0  0  0
    3.9248   -2.0863    0.0000 C   0  0  0  0  0  0  0  0  0
    4.3380   -1.3722    0.0000 N   0  0  0  0  0  0  0  0  0
    5.1630   -1.3731    0.0000 C   0  0  0  0  0  0  0  0  0
    3.9262   -0.6574    0.0000 C   0  0  0  0  0  0  0  0  0
    3.7880    0.1600    0.0000 C   0  0  0  0  0  0  0  0  0
    2.8592    0.1445    0.0000 C   0  0  0  0  0  0  0  0  0
    2.2986    0.5844    0.0000 N   0  0  0  0  0  0  0  0  0
    2.4383   -0.2287    0.0000 C   0  0  0  0  0  0  0  0  0
    3.4100   -0.2287    0.0000 C   0  0  0  0  0  0  0  0  0
    1.9184   -0.9410    0.0000 C   0  0  0  0  0  0  0  0  0
    2.5387   -0.5641    0.0000 C   0  0  0  0  0  0  0  0  0
    1.8760    1.2930    0.0000 C   0  0  0  0  0  0  0  0  0
    3.0998   -2.0855    0.0000 C   0  0  0  0  0  0  0  0  0
    2.6866   -2.7996    0.0000 C   0  0  0  0  0  0  0  0  0
    1.8616   -2.7987    0.0000 C   0  0  0  0  0  0  0  0  0
    1.4498   -2.0839    0.0000 C   0  0  0  0  0  0  0  0  0
    0.6248   -2.0831    0.0000 F   0  0  0  0  0  0  0  0  0
    1.8630   -1.3698    0.0000 C   0  0  0  0  0  0  0  0  0
    2.6880   -1.3706    0.0000 C   0  0  0  0  0  0  0  0  0
  1  2  1  0  0  0  0
  2  3  4  0  0  0  0
  2  7  4  0  0  0  0
  3  4  4  0  0  0  0
  4  5  4  0  0  0  0
  5  6  4  0  0  0  0
  5  8  1  0  0  0  0
  6  7  4  0  0  0  0
  8  9  1  0  0  0  0
  8 20  1  0  0  0  0
  9 10  1  0  0  0  0
  9 11  1  0  0  0  0
 11 12  1  0  0  0  0
 11 16  1  0  0  0  0
 12 13  1  0  0  0  0
 13 14  1  0  0  0  0
 13 18  1  0  0  0  0
 14 15  1  0  0  0  0
 14 19  1  0  0  0  0
 15 16  1  0  0  0  0
 15 17  1  0  0  0  0
 17 18  1  0  0  0  0
 20 21  4  0  0  0  0
 20 26  4  0  0  0  0
 21 22  4  0  0  0  0
 22 23  4  0  0  0  0
 23 24  1  0  0  0  0
 23 25  4  0  0  0  0
 25 26  4  0  0  0  0
M  END
>  <Name_Molregno>
333851

>  <Muscarinic acetylcholine receptor M1>
7.73

>  <Norepinephrine transporter>
5.08

>  <Serotonin transporter>
4.76

$$$$
335202
  Marvin  02231216192D 0   1.00000     0.00000     0

 31 34  0  0  0  0  0  0  0  0999 V2000
   -5.3316    5.4643    0.0000 O   0  0  0  0  0  0  0  0  0
   -6.0461    5.8768    0.0000 C   0  0  0  0  0  0  0  0  0
   -4.6172    5.8768    0.0000 C   0  0  0  0  0  0  0  0  0
   -3.9027    5.4643    0.0000 C   0  0  0  0  0  0  0  0  0
   -3.1882    5.8768    0.0000 C   0  0  0  0  0  0  0  0  0
   -3.1882    6.7018    0.0000 C   0  0  0  0  0  0  0  0  0
   -3.9027    7.1143    0.0000 C   0  0  0  0  0  0  0  0  0
   -4.6172    6.7018    0.0000 C   0  0  0  0  0  0  0  0  0
   -2.4737    7.1143    0.0000 C   0  0  0  0  0  0  0  0  0
   -1.7593    6.7018    0.0000 C   0  0  0  0  0  0  0  0  0
   -1.7593    5.8768    0.0000 C   0  0  0  0  0  0  0  0  0
   -2.4737    5.4643    0.0000 C   0  0  0  0  0  0  0  0  0
   -2.4737    4.6393    0.0000 N   0  0  0  0  0  0  0  0  0
   -1.7593    4.2268    0.0000 C   0  0  0  0  0  0  0  0  0
   -1.7593    3.4018    0.0000 C   0  0  0  0  0  0  0  0  0
   -2.4737    2.9893    0.0000 N   0  0  0  0  0  0  0  0  0
   -3.1882    3.4018    0.0000 C   0  0  0  0  0  0  0  0  0
   -3.1882    4.2268    0.0000 C   0  0  0  0  0  0  0  0  0
   -2.4737    2.1643    0.0000 C   0  0  0  0  0  0  0  0  0
   -1.7593    1.7518    0.0000 C   0  0  0  0  0  0  0  0  0
   -1.7593    0.9268    0.0000 C   0  0  0  0  0  0  0  0  0
   -1.0448    0.5143    0.0000 C   0  0  0  0  0  0  0  0  0
   -1.0448   -0.3107    0.0000 N   0  0  0  0  0  0  0  0  0
   -0.3303   -0.7232    0.0000 N   0  0  0  0  0  0  0  0  0
   -0.3303   -1.5482    0.0000 C   0  0  0  0  0  0  0  0  0
   -1.0448   -1.9607    0.0000 C   0  0  0  0  0  0  0  0  0
   -1.0448   -2.7857    0.0000 O   0  0  0  0  0  0  0  0  0
   -1.7593   -1.5482    0.0000 N   0  0  0  0  0  0  0  0  0
   -2.4737   -1.9607    0.0000 C   0  0  0  0  0  0  0  0  0
   -1.7593   -0.7232    0.0000 C   0  0  0  0  0  0  0  0  0
   -2.4737   -0.3107    0.0000 O   0  0  0  0  0  0  0  0  0
  1  2  1  0  0  0  0
  1  3  1  0  0  0  0
  3  4  4  0  0  0  0
  3  8  4  0  0  0  0
  4  5  4  0  0  0  0
  5  6  4  0  0  0  0
  5 12  4  0  0  0  0
  6  7  4  0  0  0  0
  6  9  4  0  0  0  0
  7  8  4  0  0  0  0
  9 10  4  0  0  0  0
 10 11  4  0  0  0  0
 11 12  4  0  0  0  0
 12 13  1  0  0  0  0
 13 14  1  0  0  0  0
 13 18  1  0  0  0  0
 14 15  1  0  0  0  0
 15 16  1  0  0  0  0
 16 17  1  0  0  0  0
 16 19  1  0  0  0  0
 17 18  1  0  0  0  0
 19 20  1  0  0  0  0
 20 21  1  0  0  0  0
 21 22  1  0  0  0  0
 22 23  1  0  0  0  0
 23 24  1  0  0  0  0
 23 30  1  0  0  0  0
 24 25  2  0  0  0  0
 25 26  1  0  0  0  0
 26 27  2  0  0  0  0
 26 28  1  0  0  0  0
 28 29  1  0  0  0  0
 28 30  1  0  0  0  0
 30 31  2  0  0  0  0
M  END
>  <Name_Molregno>
335202

>  <5-HT1A>
8.87

>  <5-HT2A>
7.38

>  <5-HT2C>
7

>  <5-HT3>
5

>  <5-HT5>
6.64

>  <5-HT6>
6.92

>  <5-HT7>
8.04

>  <Alpha-2A>
5.99

>  <Alpha-2B>
6.5

>  <Alpha-2C>
7.63

>  <Beta-1>
6.32

>  <Beta-2>
7.22

>  <DOPAMINE D1>
5.13

>  <DOPAMINE D2>
7.66

>  <DOPAMINE D3>
7.2

>  <DOPAMINE D4>
8.07

>  <DOPAMINE D5>
5

>  <Dopamine transporter>
6.39

>  <HISTAMINE H1>
6.82

>  <HISTAMINE H2>
6.52

>  <HISTAMINE H3>
5

>  <HISTAMINE H4>
5

>  <Norepinephrine transporter>
5.16

>  <Serotonin transporter>
5.21

$$$$
335730
  Marvin  02231216192D 0   1.00000     0.00000     0

 14 15  0  0  1  0  0  0  0  0999 V2000
    0.1624   -1.0405    0.0000 O   0  0  0  0  0  0  0  0  0
   -0.5521   -0.6280    0.0000 C   0  0  0  0  0  0  0  0  0
   -1.2666   -1.0405    0.0000 C   0  0  0  0  0  0  0  0  0
   -1.9811   -0.6280    0.0000 C   0  0  0  0  0  0  0  0  0
   -2.7657   -0.8829    0.0000 N   0  0  0  0  0  0  0  0  0
   -3.2506   -0.2155    0.0000 N   0  0  0  0  0  0  0  0  0
   -2.7657    0.4520    0.0000 C   0  0  0  0  0  0  0  0  0
   -1.9811    0.1970    0.0000 C   0  0  0  0  0  0  0  0  0
   -1.2666    0.6095    0.0000 C   0  0  0  0  0  0  0  0  0
   -0.5521    0.1970    0.0000 C   0  0  0  0  0  0  0  0  0
   -3.0206   -1.6675    0.0000 C   0  0  0  0  0  0  0  0  0
   -3.8276   -1.8391    0.0000 C   0  0  0  0  0  0  0  0  0
   -4.0825   -2.6237    0.0000 N   0  0  0  0  0  0  0  0  0
   -4.3796   -1.2260    0.0000 C   0  0  0  0  0  0  0  0  0
  1  2  1  0  0  0  0
  2  3  4  0  0  0  0
  2 10  4  0  0  0  0
  3  4  4  0  0  0  0
  4  5  4  0  0  0  0
  4  8  4  0  0  0  0
  5  6  4  0  0  0  0
  5 11  1  0  0  0  0
  6  7  4  0  0  0  0
  7  8  4  0  0  0  0
  8  9  4  0  0  0  0
  9 10  4  0  0  0  0
 11 12  1  0  0  0  0
 12 13  1  0  0  0  0
 12 14  1  0  0  0  0
M  END
>  <Name_Molregno>
335730

>  <5-HT1A>
6.85

>  <5-HT1B>
5

>  <5-HT1D>
5.1

>  <5-HT2A>
7.45

>  <5-HT2C>
8

>  <5-HT3>
5

>  <5-HT5>
5

>  <5-HT6>
5

>  <Alpha-1A>
4.52

>  <Alpha-1B>
4.52

>  <Alpha-2A>
5.64

>  <Alpha-2C>
5.33

>  <Norepinephrine transporter>
5

>  <Serotonin transporter>
5

$$$$
338679
  Marvin  02231216192D 0   1.00000     0.00000     0

 22 24  0  0  1  0  0  0  0  0999 V2000
    4.7450    2.0381    0.0000 O   0  0  0  0  0  0  0  0  0
    5.5519    2.2096    0.0000 C   0  0  0  0  0  0  0  0  0
    5.9644    1.4952    0.0000 C   0  0  0  0  0  0  0  0  0
    5.4124    0.8821    0.0000 C   0  0  0  0  0  0  0  0  0
    4.6587    1.2176    0.0000 C   0  0  0  0  0  0  0  0  0
    3.9442    0.8051    0.0000 C   0  0  0  0  0  0  0  0  0
    3.9442   -0.0199    0.0000 C   0  0  0  0  0  0  0  0  0
    3.2298   -0.4324    0.0000 C   0  0  0  0  0  0  0  0  0
    2.5153   -0.0199    0.0000 C   0  0  0  0  0  0  0  0  0
    2.5153    0.8051    0.0000 C   0  0  0  0  0  0  0  0  0
    3.2298    1.2176    0.0000 C   0  0  0  0  0  0  0  0  0
    1.8008   -0.4324    0.0000 C   0  0  0  0  0  0  0  0  0
    1.0864   -0.0199    0.0000 O   0  0  0  0  0  0  0  0  0
    1.8008   -1.2574    0.0000 C   0  0  0  0  0  0  0  0  0
    1.0864   -1.6699    0.0000 N   0  0  0  0  0  0  0  0  0
    1.0001   -2.4904    0.0000 C   0  0  0  0  0  0  0  0  0
    0.1932   -2.6619    0.0000 C   0  0  0  0  0  0  0  0  0
   -0.2193   -1.9474    0.0000 C   0  0  0  0  0  0  0  0  0
    0.3327   -1.3343    0.0000 C   0  0  0  0  0  0  0  0  0
    2.5153   -1.6699    0.0000 C   0  0  0  0  0  0  0  0  0
    3.2298   -1.2574    0.0000 C   0  0  0  0  0  0  0  0  0
    3.9442   -1.6699    0.0000 C   0  0  0  0  0  0  0  0  0
  1  2  4  0  0  0  0
  1  5  4  0  0  0  0
  2  3  4  0  0  0  0
  3  4  4  0  0  0  0
  4  5  4  0  0  0  0
  5  6  1  0  0  0  0
  6  7  4  0  0  0  0
  6 11  4  0  0  0  0
  7  8  4  0  0  0  0
  8  9  4  0  0  0  0
  9 10  4  0  0  0  0
  9 12  1  0  0  0  0
 10 11  4  0  0  0  0
 12 13  2  0  0  0  0
 12 14  1  0  0  0  0
 14 15  1  0  0  0  0
 14 20  1  0  0  0  0
 15 16  1  0  0  0  0
 15 19  1  0  0  0  0
 16 17  1  0  0  0  0
 17 18  1  0  0  0  0
 18 19  1  0  0  0  0
 20 21  1  0  0  0  0
 21 22  1  0  0  0  0
M  END
>  <Name_Molregno>
338679

>  <Dopamine transporter>
6.98

>  <Norepinephrine transporter>
7.02

>  <Serotonin transporter>
5.48

$$$$
338680
  Marvin  02231216192D 0   1.00000     0.00000     0

 20 21  0  0  1  0  0  0  0  0999 V2000
    2.0035    3.8327    0.0000 Cl  0  0  0  0  0  0  0  0  0
    2.0035    3.0077    0.0000 C   0  0  0  0  0  0  0  0  0
    2.7180    2.5952    0.0000 C   0  0  0  0  0  0  0  0  0
    2.7180    1.7702    0.0000 C   0  0  0  0  0  0  0  0  0
    2.0035    1.3577    0.0000 C   0  0  0  0  0  0  0  0  0
    1.2891    1.7702    0.0000 C   0  0  0  0  0  0  0  0  0
    1.2891    2.5952    0.0000 C   0  0  0  0  0  0  0  0  0
    0.5746    3.0077    0.0000 Cl  0  0  0  0  0  0  0  0  0
    3.4325    1.3577    0.0000 C   0  0  0  0  0  0  0  0  0
    4.1470    1.7702    0.0000 O   0  0  0  0  0  0  0  0  0
    3.4325    0.5327    0.0000 C   0  0  0  0  0  0  0  0  0
    2.7180    0.1202    0.0000 C   0  0  0  0  0  0  0  0  0
    2.7180   -0.7048    0.0000 C   0  0  0  0  0  0  0  0  0
    2.0035   -1.1173    0.0000 C   0  0  0  0  0  0  0  0  0
    4.1470    0.1202    0.0000 C   0  0  0  0  0  0  0  0  0
    4.1470   -0.7048    0.0000 N   0  0  0  0  0  0  0  0  0
    4.8144   -1.1897    0.0000 C   0  0  0  0  0  0  0  0  0
    4.5595   -1.9744    0.0000 C   0  0  0  0  0  0  0  0  0
    3.7345   -1.9744    0.0000 C   0  0  0  0  0  0  0  0  0
    3.4795   -1.1897    0.0000 C   0  0  0  0  0  0  0  0  0
  1  2  1  0  0  0  0
  2  3  4  0  0  0  0
  2  7  4  0  0  0  0
  3  4  4  0  0  0  0
  4  5  4  0  0  0  0
  4  9  1  0  0  0  0
  5  6  4  0  0  0  0
  6  7  4  0  0  0  0
  7  8  1  0  0  0  0
  9 10  2  0  0  0  0
  9 11  1  0  0  0  0
 11 12  1  0  0  0  0
 11 15  1  0  0  0  0
 12 13  1  0  0  0  0
 13 14  1  0  0  0  0
 15 16  1  0  0  0  0
 16 17  1  0  0  0  0
 16 20  1  0  0  0  0
 17 18  1  0  0  0  0
 18 19  1  0  0  0  0
 19 20  1  0  0  0  0
M  END
>  <Name_Molregno>
338680

>  <Dopamine transporter>
5.82

>  <Norepinephrine transporter>
5

>  <Serotonin transporter>
6.2

$$$$
338681
  Marvin  02231216192D 0   1.00000     0.00000     0

 18 19  0  0  1  0  0  0  0  0999 V2000
    3.6691    2.6053    0.0000 Cl  0  0  0  0  0  0  0  0  0
    2.9547    2.1928    0.0000 C   0  0  0  0  0  0  0  0  0
    2.9547    1.3678    0.0000 C   0  0  0  0  0  0  0  0  0
    2.2402    0.9553    0.0000 C   0  0  0  0  0  0  0  0  0
    1.5257    1.3678    0.0000 C   0  0  0  0  0  0  0  0  0
    1.5257    2.1928    0.0000 C   0  0  0  0  0  0  0  0  0
    2.2402    2.6053    0.0000 C   0  0  0  0  0  0  0  0  0
    2.2402    3.4303    0.0000 Cl  0  0  0  0  0  0  0  0  0
    2.2402    0.1303    0.0000 C   0  0  0  0  0  0  0  0  0
    1.5257   -0.2822    0.0000 O   0  0  0  0  0  0  0  0  0
    2.9547   -0.2822    0.0000 C   0  0  0  0  0  0  0  0  0
    2.9547   -1.1072    0.0000 N   0  0  0  0  0  0  0  0  0
    3.6221   -1.5921    0.0000 C   0  0  0  0  0  0  0  0  0
    3.3672   -2.3767    0.0000 C   0  0  0  0  0  0  0  0  0
    2.5422   -2.3767    0.0000 C   0  0  0  0  0  0  0  0  0
    2.2872   -1.5921    0.0000 C   0  0  0  0  0  0  0  0  0
    3.6691    0.1303    0.0000 C   0  0  0  0  0  0  0  0  0
    4.3836   -0.2822    0.0000 C   0  0  0  0  0  0  0  0  0
  1  2  1  0  0  0  0
  2  3  4  0  0  0  0
  2  7  4  0  0  0  0
  3  4  4  0  0  0  0
  4  5  4  0  0  0  0
  4  9  1  0  0  0  0
  5  6  4  0  0  0  0
  6  7  4  0  0  0  0
  7  8  1  0  0  0  0
  9 10  2  0  0  0  0
  9 11  1  0  0  0  0
 11 12  1  0  0  0  0
 11 17  1  0  0  0  0
 12 13  1  0  0  0  0
 12 16  1  0  0  0  0
 13 14  1  0  0  0  0
 14 15  1  0  0  0  0
 15 16  1  0  0  0  0
 17 18  1  0  0  0  0
M  END
>  <Name_Molregno>
338681

>  <Dopamine transporter>
7.54

>  <Norepinephrine transporter>
6.58

>  <Serotonin transporter>
6.09

$$$$
338753
  Marvin  02231216192D 0   1.00000     0.00000     0

 19 20  0  0  1  0  0  0  0  0999 V2000
    1.5930   -0.6903    0.0000 O   0  0  0  0  0  0  0  0  0
    0.8785   -1.1028    0.0000 C   0  0  0  0  0  0  0  0  0
    0.8785   -1.9278    0.0000 C   0  0  0  0  0  0  0  0  0
    0.1640   -2.3403    0.0000 N   0  0  0  0  0  0  0  0  0
    0.0778   -3.1608    0.0000 C   0  0  0  0  0  0  0  0  0
   -0.7292   -3.3323    0.0000 C   0  0  0  0  0  0  0  0  0
   -1.1417   -2.6178    0.0000 C   0  0  0  0  0  0  0  0  0
   -0.5896   -2.0048    0.0000 C   0  0  0  0  0  0  0  0  0
    1.5930   -2.3403    0.0000 C   0  0  0  0  0  0  0  0  0
    2.3074   -1.9278    0.0000 C   0  0  0  0  0  0  0  0  0
    2.3074   -1.1028    0.0000 C   0  0  0  0  0  0  0  0  0
    3.0219   -2.3403    0.0000 C   0  0  0  0  0  0  0  0  0
    0.1640   -0.6903    0.0000 C   0  0  0  0  0  0  0  0  0
   -0.5504   -1.1028    0.0000 C   0  0  0  0  0  0  0  0  0
   -1.2649   -0.6903    0.0000 C   0  0  0  0  0  0  0  0  0
   -1.2649    0.1347    0.0000 C   0  0  0  0  0  0  0  0  0
   -0.5504    0.5472    0.0000 C   0  0  0  0  0  0  0  0  0
    0.1640    0.1347    0.0000 C   0  0  0  0  0  0  0  0  0
   -1.9794    0.5472    0.0000 C   0  0  0  0  0  0  0  0  0
  1  2  2  0  0  0  0
  2  3  1  0  0  0  0
  2 13  1  0  0  0  0
  3  4  1  0  0  0  0
  3  9  1  0  0  0  0
  4  5  1  0  0  0  0
  4  8  1  0  0  0  0
  5  6  1  0  0  0  0
  6  7  1  0  0  0  0
  7  8  1  0  0  0  0
  9 10  1  0  0  0  0
 10 11  1  0  0  0  0
 10 12  1  0  0  0  0
 13 14  4  0  0  0  0
 13 18  4  0  0  0  0
 14 15  4  0  0  0  0
 15 16  4  0  0  0  0
 16 17  4  0  0  0  0
 16 19  1  0  0  0  0
 17 18  4  0  0  0  0
M  END
>  <Name_Molregno>
338753

>  <Dopamine transporter>
7.86

>  <Norepinephrine transporter>
6.59

>  <Serotonin transporter>
5.54

$$$$
338754
  Marvin  02231216192D 0   1.00000     0.00000     0

 18 19  0  0  1  0  0  0  0  0999 V2000
    1.6090   -0.6396    0.0000 O   0  0  0  0  0  0  0  0  0
    0.8946   -1.0521    0.0000 C   0  0  0  0  0  0  0  0  0
    0.8946   -1.8771    0.0000 C   0  0  0  0  0  0  0  0  0
    0.1801   -2.2896    0.0000 N   0  0  0  0  0  0  0  0  0
    0.0938   -3.1100    0.0000 C   0  0  0  0  0  0  0  0  0
   -0.7131   -3.2816    0.0000 C   0  0  0  0  0  0  0  0  0
   -1.1256   -2.5671    0.0000 C   0  0  0  0  0  0  0  0  0
   -0.5736   -1.9540    0.0000 C   0  0  0  0  0  0  0  0  0
    1.6090   -2.2896    0.0000 C   0  0  0  0  0  0  0  0  0
    2.3235   -1.8771    0.0000 C   0  0  0  0  0  0  0  0  0
    3.0380   -2.2896    0.0000 C   0  0  0  0  0  0  0  0  0
    0.1801   -0.6396    0.0000 C   0  0  0  0  0  0  0  0  0
   -0.5344   -1.0521    0.0000 C   0  0  0  0  0  0  0  0  0
   -1.2489   -0.6396    0.0000 C   0  0  0  0  0  0  0  0  0
   -1.2489    0.1854    0.0000 C   0  0  0  0  0  0  0  0  0
   -0.5344    0.5979    0.0000 C   0  0  0  0  0  0  0  0  0
    0.1801    0.1854    0.0000 C   0  0  0  0  0  0  0  0  0
   -1.9633    0.5979    0.0000 C   0  0  0  0  0  0  0  0  0
  1  2  2  0  0  0  0
  2  3  1  0  0  0  0
  2 12  1  0  0  0  0
  3  4  1  0  0  0  0
  3  9  1  0  0  0  0
  4  5  1  0  0  0  0
  4  8  1  0  0  0  0
  5  6  1  0  0  0  0
  6  7  1  0  0  0  0
  7  8  1  0  0  0  0
  9 10  1  0  0  0  0
 10 11  2  0  0  0  0
 12 13  4  0  0  0  0
 12 17  4  0  0  0  0
 13 14  4  0  0  0  0
 14 15  4  0  0  0  0
 15 16  4  0  0  0  0
 15 18  1  0  0  0  0
 16 17  4  0  0  0  0
M  END
>  <Name_Molregno>
338754

>  <Dopamine transporter>
7.04

>  <Norepinephrine transporter>
5.85

>  <Serotonin transporter>
5

$$$$
338762
  Marvin  02231216192D 0   1.00000     0.00000     0

 19 20  0  0  1  0  0  0  0  0999 V2000
    5.0573    0.7761    0.0000 Cl  0  0  0  0  0  0  0  0  0
    4.3428    1.1886    0.0000 C   0  0  0  0  0  0  0  0  0
    3.6283    0.7761    0.0000 C   0  0  0  0  0  0  0  0  0
    2.9139    1.1886    0.0000 C   0  0  0  0  0  0  0  0  0
    2.9139    2.0136    0.0000 C   0  0  0  0  0  0  0  0  0
    3.6283    2.4261    0.0000 C   0  0  0  0  0  0  0  0  0
    4.3428    2.0136    0.0000 C   0  0  0  0  0  0  0  0  0
    5.0573    2.4261    0.0000 Cl  0  0  0  0  0  0  0  0  0
    2.1994    0.7761    0.0000 C   0  0  0  0  0  0  0  0  0
    1.4849    1.1886    0.0000 O   0  0  0  0  0  0  0  0  0
    2.1994   -0.0489    0.0000 C   0  0  0  0  0  0  0  0  0
    1.4849   -0.4614    0.0000 N   0  0  0  0  0  0  0  0  0
    1.3987   -1.2819    0.0000 C   0  0  0  0  0  0  0  0  0
    0.5917   -1.4534    0.0000 C   0  0  0  0  0  0  0  0  0
    0.1792   -0.7390    0.0000 C   0  0  0  0  0  0  0  0  0
    0.7312   -0.1259    0.0000 C   0  0  0  0  0  0  0  0  0
    2.9139   -0.4614    0.0000 C   0  0  0  0  0  0  0  0  0
    3.6283   -0.0489    0.0000 C   0  0  0  0  0  0  0  0  0
    4.3428   -0.4614    0.0000 C   0  0  0  0  0  0  0  0  0
  1  2  1  0  0  0  0
  2  3  4  0  0  0  0
  2  7  4  0  0  0  0
  3  4  4  0  0  0  0
  4  5  4  0  0  0  0
  4  9  1  0  0  0  0
  5  6  4  0  0  0  0
  6  7  4  0  0  0  0
  7  8  1  0  0  0  0
  9 10  2  0  0  0  0
  9 11  1  0  0  0  0
 11 12  1  0  0  0  0
 11 17  1  0  0  0  0
 12 13  1  0  0  0  0
 12 16  1  0  0  0  0
 13 14  1  0  0  0  0
 14 15  1  0  0  0  0
 15 16  1  0  0  0  0
 17 18  1  0  0  0  0
 18 19  2  0  0  0  0
M  END
>  <Name_Molregno>
338762

>  <Dopamine transporter>
7.4

>  <Norepinephrine transporter>
6.29

>  <Serotonin transporter>
5.97

$$$$
338769
  Marvin  02231216192D 0   1.00000     0.00000     0

 18 19  0  0  1  0  0  0  0  0999 V2000
    1.6090   -0.6396    0.0000 O   0  0  0  0  0  0  0  0  0
    0.8946   -1.0521    0.0000 C   0  0  0  0  0  0  0  0  0
    0.8946   -1.8771    0.0000 C   0  0  0  0  0  0  0  0  0
    0.1801   -2.2896    0.0000 N   0  0  0  0  0  0  0  0  0
    0.0938   -3.1100    0.0000 C   0  0  0  0  0  0  0  0  0
   -0.7131   -3.2816    0.0000 C   0  0  0  0  0  0  0  0  0
   -1.1256   -2.5671    0.0000 C   0  0  0  0  0  0  0  0  0
   -0.5736   -1.9540    0.0000 C   0  0  0  0  0  0  0  0  0
    1.6090   -2.2896    0.0000 C   0  0  0  0  0  0  0  0  0
    2.3235   -1.8771    0.0000 C   0  0  0  0  0  0  0  0  0
    3.0380   -2.2896    0.0000 C   0  0  0  0  0  0  0  0  0
    0.1801   -0.6396    0.0000 C   0  0  0  0  0  0  0  0  0
   -0.5344   -1.0521    0.0000 C   0  0  0  0  0  0  0  0  0
   -1.2489   -0.6396    0.0000 C   0  0  0  0  0  0  0  0  0
   -1.2489    0.1854    0.0000 C   0  0  0  0  0  0  0  0  0
   -0.5344    0.5979    0.0000 C   0  0  0  0  0  0  0  0  0
    0.1801    0.1854    0.0000 C   0  0  0  0  0  0  0  0  0
   -1.9633    0.5979    0.0000 C   0  0  0  0  0  0  0  0  0
  1  2  1  0  0  0  0
  2  3  1  0  0  0  0
  2 12  1  0  0  0  0
  3  4  1  0  0  0  0
  3  9  1  0  0  0  0
  4  5  1  0  0  0  0
  4  8  1  0  0  0  0
  5  6  1  0  0  0  0
  6  7  1  0  0  0  0
  7  8  1  0  0  0  0
  9 10  1  0  0  0  0
 10 11  1  0  0  0  0
 12 13  4  0  0  0  0
 12 17  4  0  0  0  0
 13 14  4  0  0  0  0
 14 15  4  0  0  0  0
 15 16  4  0  0  0  0
 15 18  1  0  0  0  0
 16 17  4  0  0  0  0
M  END
>  <Name_Molregno>
338769

>  <Dopamine transporter>
5

>  <Norepinephrine transporter>
5

>  <Serotonin transporter>
5

$$$$
338970
  Marvin  02231216192D 0   1.00000     0.00000     0

 21 22  0  0  1  0  0  0  0  0999 V2000
   -4.1189   -4.1459    0.0000 O   0  0  0  0  0  0  0  0  0
   -3.4044   -3.7334    0.0000 C   0  0  0  0  0  0  0  0  0
   -2.6900   -4.1459    0.0000 O   0  0  0  0  0  0  0  0  0
   -3.4044   -2.9084    0.0000 C   0  0  0  0  0  0  0  0  0
   -4.1189   -2.4959    0.0000 C   0  0  0  0  0  0  0  0  0
   -4.1189   -1.6709    0.0000 C   0  0  0  0  0  0  0  0  0
   -3.4044   -1.2584    0.0000 C   0  0  0  0  0  0  0  0  0
   -2.6900   -1.6709    0.0000 C   0  0  0  0  0  0  0  0  0
   -2.6900   -2.4959    0.0000 C   0  0  0  0  0  0  0  0  0
   -3.4044   -0.4334    0.0000 C   0  0  0  0  0  0  0  0  0
   -4.1189   -0.0209    0.0000 O   0  0  0  0  0  0  0  0  0
   -2.6900   -0.0209    0.0000 C   0  0  0  0  0  0  0  0  0
   -2.6900    0.8041    0.0000 N   0  0  0  0  0  0  0  0  0
   -3.3574    1.2890    0.0000 C   0  0  0  0  0  0  0  0  0
   -3.1025    2.0737    0.0000 C   0  0  0  0  0  0  0  0  0
   -2.2775    2.0737    0.0000 C   0  0  0  0  0  0  0  0  0
   -2.0225    1.2890    0.0000 C   0  0  0  0  0  0  0  0  0
   -1.9755   -0.4334    0.0000 C   0  0  0  0  0  0  0  0  0
   -1.2610   -0.0209    0.0000 C   0  0  0  0  0  0  0  0  0
   -0.5466   -0.4334    0.0000 C   0  0  0  0  0  0  0  0  0
   -4.1189   -4.9709    0.0000 C   0  0  0  0  0  0  0  0  0
  1  2  1  0  0  0  0
  1 21  1  0  0  0  0
  2  3  2  0  0  0  0
  2  4  1  0  0  0  0
  4  5  4  0  0  0  0
  4  9  4  0  0  0  0
  5  6  4  0  0  0  0
  6  7  4  0  0  0  0
  7  8  4  0  0  0  0
  7 10  1  0  0  0  0
  8  9  4  0  0  0  0
 10 11  2  0  0  0  0
 10 12  1  0  0  0  0
 12 13  1  0  0  0  0
 12 18  1  0  0  0  0
 13 14  1  0  0  0  0
 13 17  1  0  0  0  0
 14 15  1  0  0  0  0
 15 16  1  0  0  0  0
 16 17  1  0  0  0  0
 18 19  1  0  0  0  0
 19 20  1  0  0  0  0
M  END
>  <Name_Molregno>
338970

>  <Dopamine transporter>
6.44

>  <Norepinephrine transporter>
5.94

>  <Serotonin transporter>
5.44

$$$$
338973
  Marvin  02231216192D 0   1.00000     0.00000     0

 22 24  0  0  1  0  0  0  0  0999 V2000
    4.7450    2.0381    0.0000 S   0  0  0  0  0  0  0  0  0
    5.5519    2.2096    0.0000 C   0  0  0  0  0  0  0  0  0
    5.9644    1.4952    0.0000 C   0  0  0  0  0  0  0  0  0
    5.4124    0.8821    0.0000 C   0  0  0  0  0  0  0  0  0
    4.6587    1.2176    0.0000 C   0  0  0  0  0  0  0  0  0
    3.9442    0.8051    0.0000 C   0  0  0  0  0  0  0  0  0
    3.9442   -0.0199    0.0000 C   0  0  0  0  0  0  0  0  0
    3.2298   -0.4324    0.0000 C   0  0  0  0  0  0  0  0  0
    2.5153   -0.0199    0.0000 C   0  0  0  0  0  0  0  0  0
    2.5153    0.8051    0.0000 C   0  0  0  0  0  0  0  0  0
    3.2298    1.2176    0.0000 C   0  0  0  0  0  0  0  0  0
    1.8008   -0.4324    0.0000 C   0  0  0  0  0  0  0  0  0
    1.0864   -0.0199    0.0000 O   0  0  0  0  0  0  0  0  0
    1.8008   -1.2574    0.0000 C   0  0  0  0  0  0  0  0  0
    1.0864   -1.6699    0.0000 N   0  0  0  0  0  0  0  0  0
    1.0001   -2.4904    0.0000 C   0  0  0  0  0  0  0  0  0
    0.1932   -2.6619    0.0000 C   0  0  0  0  0  0  0  0  0
   -0.2193   -1.9474    0.0000 C   0  0  0  0  0  0  0  0  0
    0.3327   -1.3343    0.0000 C   0  0  0  0  0  0  0  0  0
    2.5153   -1.6699    0.0000 C   0  0  0  0  0  0  0  0  0
    3.2298   -1.2574    0.0000 C   0  0  0  0  0  0  0  0  0
    3.9442   -1.6699    0.0000 C   0  0  0  0  0  0  0  0  0
  1  2  4  0  0  0  0
  1  5  4  0  0  0  0
  2  3  4  0  0  0  0
  3  4  4  0  0  0  0
  4  5  4  0  0  0  0
  5  6  1  0  0  0  0
  6  7  4  0  0  0  0
  6 11  4  0  0  0  0
  7  8  4  0  0  0  0
  8  9  4  0  0  0  0
  9 10  4  0  0  0  0
  9 12  1  0  0  0  0
 10 11  4  0  0  0  0
 12 13  2  0  0  0  0
 12 14  1  0  0  0  0
 14 15  1  0  0  0  0
 14 20  1  0  0  0  0
 15 16  1  0  0  0  0
 15 19  1  0  0  0  0
 16 17  1  0  0  0  0
 17 18  1  0  0  0  0
 18 19  1  0  0  0  0
 20 21  1  0  0  0  0
 21 22  1  0  0  0  0
M  END
>  <Name_Molregno>
338973

>  <Dopamine transporter>
6.34

>  <Norepinephrine transporter>
6.43

>  <Serotonin transporter>
5.48

$$$$
338988
  Marvin  02231216192D 0   1.00000     0.00000     0

 18 19  0  0  1  0  0  0  0  0999 V2000
    5.4854    2.4590    0.0000 Br  0  0  0  0  0  0  0  0  0
    4.7710    2.0465    0.0000 C   0  0  0  0  0  0  0  0  0
    4.7710    1.2215    0.0000 C   0  0  0  0  0  0  0  0  0
    4.0565    0.8090    0.0000 C   0  0  0  0  0  0  0  0  0
    3.3420    1.2215    0.0000 C   0  0  0  0  0  0  0  0  0
    3.3420    2.0465    0.0000 C   0  0  0  0  0  0  0  0  0
    4.0565    2.4590    0.0000 C   0  0  0  0  0  0  0  0  0
    2.6275    0.8090    0.0000 C   0  0  0  0  0  0  0  0  0
    1.9131    1.2215    0.0000 O   0  0  0  0  0  0  0  0  0
    2.6275   -0.0160    0.0000 C   0  0  0  0  0  0  0  0  0
    1.9131   -0.4285    0.0000 N   0  0  0  0  0  0  0  0  0
    1.8268   -1.2490    0.0000 C   0  0  0  0  0  0  0  0  0
    1.0199   -1.4205    0.0000 C   0  0  0  0  0  0  0  0  0
    0.6074   -0.7060    0.0000 C   0  0  0  0  0  0  0  0  0
    1.1594   -0.0930    0.0000 C   0  0  0  0  0  0  0  0  0
    3.3420   -0.4285    0.0000 C   0  0  0  0  0  0  0  0  0
    4.0565   -0.0160    0.0000 C   0  0  0  0  0  0  0  0  0
    4.7710   -0.4285    0.0000 C   0  0  0  0  0  0  0  0  0
  1  2  1  0  0  0  0
  2  3  4  0  0  0  0
  2  7  4  0  0  0  0
  3  4  4  0  0  0  0
  4  5  4  0  0  0  0
  5  6  4  0  0  0  0
  5  8  1  0  0  0  0
  6  7  4  0  0  0  0
  8  9  2  0  0  0  0
  8 10  1  0  0  0  0
 10 11  1  0  0  0  0
 10 16  1  0  0  0  0
 11 12  1  0  0  0  0
 11 15  1  0  0  0  0
 12 13  1  0  0  0  0
 13 14  1  0  0  0  0
 14 15  1  0  0  0  0
 16 17  1  0  0  0  0
 17 18  1  0  0  0  0
M  END
>  <Name_Molregno>
338988

>  <Dopamine transporter>
7.29

>  <Norepinephrine transporter>
6.41

>  <Serotonin transporter>
6.08

$$$$
338989
  Marvin  02231216192D 0   1.00000     0.00000     0

 18 19  0  0  1  0  0  0  0  0999 V2000
    5.4854    2.4590    0.0000 I   0  0  0  0  0  0  0  0  0
    4.7710    2.0465    0.0000 C   0  0  0  0  0  0  0  0  0
    4.7710    1.2215    0.0000 C   0  0  0  0  0  0  0  0  0
    4.0565    0.8090    0.0000 C   0  0  0  0  0  0  0  0  0
    3.3420    1.2215    0.0000 C   0  0  0  0  0  0  0  0  0
    3.3420    2.0465    0.0000 C   0  0  0  0  0  0  0  0  0
    4.0565    2.4590    0.0000 C   0  0  0  0  0  0  0  0  0
    2.6275    0.8090    0.0000 C   0  0  0  0  0  0  0  0  0
    1.9131    1.2215    0.0000 O   0  0  0  0  0  0  0  0  0
    2.6275   -0.0160    0.0000 C   0  0  0  0  0  0  0  0  0
    1.9131   -0.4285    0.0000 N   0  0  0  0  0  0  0  0  0
    1.8268   -1.2490    0.0000 C   0  0  0  0  0  0  0  0  0
    1.0199   -1.4205    0.0000 C   0  0  0  0  0  0  0  0  0
    0.6074   -0.7060    0.0000 C   0  0  0  0  0  0  0  0  0
    1.1594   -0.0930    0.0000 C   0  0  0  0  0  0  0  0  0
    3.3420   -0.4285    0.0000 C   0  0  0  0  0  0  0  0  0
    4.0565   -0.0160    0.0000 C   0  0  0  0  0  0  0  0  0
    4.7710   -0.4285    0.0000 C   0  0  0  0  0  0  0  0  0
  1  2  1  0  0  0  0
  2  3  4  0  0  0  0
  2  7  4  0  0  0  0
  3  4  4  0  0  0  0
  4  5  4  0  0  0  0
  5  6  4  0  0  0  0
  5  8  1  0  0  0  0
  6  7  4  0  0  0  0
  8  9  2  0  0  0  0
  8 10  1  0  0  0  0
 10 11  1  0  0  0  0
 10 16  1  0  0  0  0
 11 12  1  0  0  0  0
 11 15  1  0  0  0  0
 12 13  1  0  0  0  0
 13 14  1  0  0  0  0
 14 15  1  0  0  0  0
 16 17  1  0  0  0  0
 17 18  1  0  0  0  0
M  END
>  <Name_Molregno>
338989

>  <Dopamine transporter>
7.09

>  <Norepinephrine transporter>
6.51

>  <Serotonin transporter>
6.52

$$$$
338990
  Marvin  02231216192D 0   1.00000     0.00000     0

 18 19  0  0  1  0  0  0  0  0999 V2000
    5.3379    0.8250    0.0000 I   0  0  0  0  0  0  0  0  0
    4.6234    1.2375    0.0000 C   0  0  0  0  0  0  0  0  0
    3.9089    0.8250    0.0000 C   0  0  0  0  0  0  0  0  0
    3.1945    1.2375    0.0000 C   0  0  0  0  0  0  0  0  0
    3.1945    2.0625    0.0000 C   0  0  0  0  0  0  0  0  0
    3.9089    2.4750    0.0000 C   0  0  0  0  0  0  0  0  0
    4.6234    2.0625    0.0000 C   0  0  0  0  0  0  0  0  0
    2.4800    0.8250    0.0000 C   0  0  0  0  0  0  0  0  0
    1.7655    1.2375    0.0000 O   0  0  0  0  0  0  0  0  0
    2.4800   -0.0000    0.0000 C   0  0  0  0  0  0  0  0  0
    1.7655   -0.4125    0.0000 N   0  0  0  0  0  0  0  0  0
    1.6793   -1.2330    0.0000 C   0  0  0  0  0  0  0  0  0
    0.8723   -1.4045    0.0000 C   0  0  0  0  0  0  0  0  0
    0.4598   -0.6901    0.0000 C   0  0  0  0  0  0  0  0  0
    1.0118   -0.0770    0.0000 C   0  0  0  0  0  0  0  0  0
    3.1945   -0.4125    0.0000 C   0  0  0  0  0  0  0  0  0
    3.9089   -0.0000    0.0000 C   0  0  0  0  0  0  0  0  0
    4.6234   -0.4125    0.0000 C   0  0  0  0  0  0  0  0  0
  1  2  1  0  0  0  0
  2  3  4  0  0  0  0
  2  7  4  0  0  0  0
  3  4  4  0  0  0  0
  4  5  4  0  0  0  0
  4  8  1  0  0  0  0
  5  6  4  0  0  0  0
  6  7  4  0  0  0  0
  8  9  2  0  0  0  0
  8 10  1  0  0  0  0
 10 11  1  0  0  0  0
 10 16  1  0  0  0  0
 11 12  1  0  0  0  0
 11 15  1  0  0  0  0
 12 13  1  0  0  0  0
 13 14  1  0  0  0  0
 14 15  1  0  0  0  0
 16 17  1  0  0  0  0
 17 18  1  0  0  0  0
M  END
>  <Name_Molregno>
338990

>  <Dopamine transporter>
6.96

>  <Norepinephrine transporter>
6.17

>  <Serotonin transporter>
5.85

$$$$
339000
  Marvin  02231216192D 0   1.00000     0.00000     0

 19 20  0  0  1  0  0  0  0  0999 V2000
    1.5515   -2.6432    0.0000 O   0  0  0  0  0  0  0  0  0
    0.8370   -2.2307    0.0000 C   0  0  0  0  0  0  0  0  0
    0.8370   -1.4057    0.0000 C   0  0  0  0  0  0  0  0  0
    0.1226   -0.9932    0.0000 C   0  0  0  0  0  0  0  0  0
   -0.5919   -1.4057    0.0000 C   0  0  0  0  0  0  0  0  0
   -1.3064   -0.9932    0.0000 C   0  0  0  0  0  0  0  0  0
    1.5515   -0.9932    0.0000 C   0  0  0  0  0  0  0  0  0
    1.5515   -0.1682    0.0000 N   0  0  0  0  0  0  0  0  0
    0.8841    0.3167    0.0000 C   0  0  0  0  0  0  0  0  0
    1.1390    1.1014    0.0000 C   0  0  0  0  0  0  0  0  0
    1.9640    1.1014    0.0000 C   0  0  0  0  0  0  0  0  0
    2.2190    0.3167    0.0000 C   0  0  0  0  0  0  0  0  0
    0.1226   -2.6432    0.0000 C   0  0  0  0  0  0  0  0  0
    0.1226   -3.4682    0.0000 C   0  0  0  0  0  0  0  0  0
   -0.5919   -3.8807    0.0000 C   0  0  0  0  0  0  0  0  0
   -1.3064   -3.4682    0.0000 C   0  0  0  0  0  0  0  0  0
   -1.3064   -2.6432    0.0000 C   0  0  0  0  0  0  0  0  0
   -0.5919   -2.2307    0.0000 C   0  0  0  0  0  0  0  0  0
   -2.0208   -3.8807    0.0000 C   0  0  0  0  0  0  0  0  0
  1  2  2  0  0  0  0
  2  3  1  0  0  0  0
  2 13  1  0  0  0  0
  3  4  1  0  0  0  0
  3  7  1  0  0  0  0
  4  5  1  0  0  0  0
  5  6  1  0  0  0  0
  7  8  1  0  0  0  0
  8  9  1  0  0  0  0
  8 12  1  0  0  0  0
  9 10  1  0  0  0  0
 10 11  1  0  0  0  0
 11 12  1  0  0  0  0
 13 14  4  0  0  0  0
 13 18  4  0  0  0  0
 14 15  4  0  0  0  0
 15 16  4  0  0  0  0
 16 17  4  0  0  0  0
 16 19  1  0  0  0  0
 17 18  4  0  0  0  0
M  END
>  <Name_Molregno>
339000

>  <Dopamine transporter>
5

>  <Norepinephrine transporter>
5

>  <Serotonin transporter>
5.39

$$$$
339012
  Marvin  02231216192D 0   1.00000     0.00000     0

 19 20  0  0  1  0  0  0  0  0999 V2000
    1.6060   -0.8416    0.0000 O   0  0  0  0  0  0  0  0  0
    0.8915   -1.2541    0.0000 C   0  0  0  0  0  0  0  0  0
    0.8915   -2.0791    0.0000 C   0  0  0  0  0  0  0  0  0
    0.1770   -2.4916    0.0000 N   0  0  0  0  0  0  0  0  0
    0.0908   -3.3121    0.0000 C   0  0  0  0  0  0  0  0  0
   -0.7162   -3.4836    0.0000 C   0  0  0  0  0  0  0  0  0
   -1.1287   -2.7691    0.0000 C   0  0  0  0  0  0  0  0  0
   -0.5767   -2.1560    0.0000 C   0  0  0  0  0  0  0  0  0
    1.6060   -2.4916    0.0000 C   0  0  0  0  0  0  0  0  0
    2.3204   -2.0791    0.0000 C   0  0  0  0  0  0  0  0  0
    3.0349   -2.4916    0.0000 C   0  0  0  0  0  0  0  0  0
    0.1770   -0.8416    0.0000 C   0  0  0  0  0  0  0  0  0
   -0.5374   -1.2541    0.0000 C   0  0  0  0  0  0  0  0  0
   -1.2519   -0.8416    0.0000 C   0  0  0  0  0  0  0  0  0
   -1.2519   -0.0166    0.0000 C   0  0  0  0  0  0  0  0  0
   -0.5374    0.3959    0.0000 C   0  0  0  0  0  0  0  0  0
    0.1770   -0.0166    0.0000 C   0  0  0  0  0  0  0  0  0
   -1.9664    0.3959    0.0000 C   0  0  0  0  0  0  0  0  0
   -2.6809    0.8084    0.0000 N   0  0  0  0  0  0  0  0  0
  1  2  2  0  0  0  0
  2  3  1  0  0  0  0
  2 12  1  0  0  0  0
  3  4  1  0  0  0  0
  3  9  1  0  0  0  0
  4  5  1  0  0  0  0
  4  8  1  0  0  0  0
  5  6  1  0  0  0  0
  6  7  1  0  0  0  0
  7  8  1  0  0  0  0
  9 10  1  0  0  0  0
 10 11  1  0  0  0  0
 12 13  4  0  0  0  0
 12 17  4  0  0  0  0
 13 14  4  0  0  0  0
 14 15  4  0  0  0  0
 15 16  4  0  0  0  0
 15 18  1  0  0  0  0
 16 17  4  0  0  0  0
 18 19  3  0  0  0  0
M  END
>  <Name_Molregno>
339012

>  <Dopamine transporter>
5.23

>  <Norepinephrine transporter>
5

>  <Serotonin transporter>
5

$$$$
339024
  Marvin  02231216192D 0   1.00000     0.00000     0

 18 19  0  0  1  0  0  0  0  0999 V2000
    1.6090   -0.6396    0.0000 O   0  0  0  0  0  0  0  0  0
    0.8946   -1.0521    0.0000 C   0  0  0  0  0  0  0  0  0
    0.8946   -1.8771    0.0000 C   0  0  0  0  0  0  0  0  0
    0.1801   -2.2896    0.0000 N   0  0  0  0  0  0  0  0  0
    0.0938   -3.1100    0.0000 C   0  0  0  0  0  0  0  0  0
   -0.7131   -3.2816    0.0000 C   0  0  0  0  0  0  0  0  0
   -1.1256   -2.5671    0.0000 C   0  0  0  0  0  0  0  0  0
   -0.5736   -1.9540    0.0000 C   0  0  0  0  0  0  0  0  0
    1.6090   -2.2896    0.0000 C   0  0  0  0  0  0  0  0  0
    2.3235   -1.8771    0.0000 C   0  0  0  0  0  0  0  0  0
    3.0380   -2.2896    0.0000 C   0  0  0  0  0  0  0  0  0
    0.1801   -0.6396    0.0000 C   0  0  0  0  0  0  0  0  0
   -0.5344   -1.0521    0.0000 C   0  0  0  0  0  0  0  0  0
   -1.2489   -0.6396    0.0000 C   0  0  0  0  0  0  0  0  0
   -1.2489    0.1854    0.0000 C   0  0  0  0  0  0  0  0  0
   -0.5344    0.5979    0.0000 C   0  0  0  0  0  0  0  0  0
    0.1801    0.1854    0.0000 C   0  0  0  0  0  0  0  0  0
   -1.9633    0.5979    0.0000 C   0  0  0  0  0  0  0  0  0
  1  2  2  0  0  0  0
  2  3  1  0  0  0  0
  2 12  1  0  0  0  0
  3  4  1  0  0  0  0
  3  9  1  0  0  0  0
  4  5  1  0  0  0  0
  4  8  1  0  0  0  0
  5  6  1  0  0  0  0
  6  7  1  0  0  0  0
  7  8  1  0  0  0  0
  9 10  1  0  0  0  0
 10 11  1  0  0  0  0
 12 13  4  0  0  0  0
 12 17  4  0  0  0  0
 13 14  4  0  0  0  0
 14 15  4  0  0  0  0
 15 16  4  0  0  0  0
 15 18  1  0  0  0  0
 16 17  4  0  0  0  0
M  END
>  <Name_Molregno>
339024

>  <Dopamine transporter>
7.5

>  <Norepinephrine transporter>
6.22

>  <Serotonin transporter>
5.36

$$$$
339033
  Marvin  02231216192D 0   1.00000     0.00000     0

 17 18  0  0  1  0  0  0  0  0999 V2000
    1.6509   -0.4636    0.0000 O   0  0  0  0  0  0  0  0  0
    0.9364   -0.8761    0.0000 C   0  0  0  0  0  0  0  0  0
    0.9364   -1.7011    0.0000 C   0  0  0  0  0  0  0  0  0
    0.2219   -2.1136    0.0000 N   0  0  0  0  0  0  0  0  0
    0.1357   -2.9340    0.0000 C   0  0  0  0  0  0  0  0  0
   -0.6713   -3.1056    0.0000 C   0  0  0  0  0  0  0  0  0
   -1.0838   -2.3911    0.0000 C   0  0  0  0  0  0  0  0  0
   -0.5317   -1.7780    0.0000 C   0  0  0  0  0  0  0  0  0
    1.6509   -2.1136    0.0000 C   0  0  0  0  0  0  0  0  0
    2.3653   -1.7011    0.0000 C   0  0  0  0  0  0  0  0  0
    3.0798   -2.1136    0.0000 C   0  0  0  0  0  0  0  0  0
    0.2219   -0.4636    0.0000 C   0  0  0  0  0  0  0  0  0
   -0.4925   -0.8761    0.0000 C   0  0  0  0  0  0  0  0  0
   -1.2070   -0.4636    0.0000 C   0  0  0  0  0  0  0  0  0
   -1.2070    0.3614    0.0000 C   0  0  0  0  0  0  0  0  0
   -0.4925    0.7739    0.0000 C   0  0  0  0  0  0  0  0  0
    0.2219    0.3614    0.0000 C   0  0  0  0  0  0  0  0  0
  1  2  2  0  0  0  0
  2  3  1  0  0  0  0
  2 12  1  0  0  0  0
  3  4  1  0  0  0  0
  3  9  1  0  0  0  0
  4  5  1  0  0  0  0
  4  8  1  0  0  0  0
  5  6  1  0  0  0  0
  6  7  1  0  0  0  0
  7  8  1  0  0  0  0
  9 10  1  0  0  0  0
 10 11  1  0  0  0  0
 12 13  4  0  0  0  0
 12 17  4  0  0  0  0
 13 14  4  0  0  0  0
 14 15  4  0  0  0  0
 15 16  4  0  0  0  0
 16 17  4  0  0  0  0
M  END
>  <Name_Molregno>
339033

>  <Dopamine transporter>
7.47

>  <Norepinephrine transporter>
6.7

>  <Serotonin transporter>
5

$$$$
339034
  Marvin  02231216192D 0   1.00000     0.00000     0

 18 19  0  0  1  0  0  0  0  0999 V2000
    5.4854    2.4590    0.0000 F   0  0  0  0  0  0  0  0  0
    4.7710    2.0465    0.0000 C   0  0  0  0  0  0  0  0  0
    4.7710    1.2215    0.0000 C   0  0  0  0  0  0  0  0  0
    4.0565    0.8090    0.0000 C   0  0  0  0  0  0  0  0  0
    3.3420    1.2215    0.0000 C   0  0  0  0  0  0  0  0  0
    3.3420    2.0465    0.0000 C   0  0  0  0  0  0  0  0  0
    4.0565    2.4590    0.0000 C   0  0  0  0  0  0  0  0  0
    2.6275    0.8090    0.0000 C   0  0  0  0  0  0  0  0  0
    1.9131    1.2215    0.0000 O   0  0  0  0  0  0  0  0  0
    2.6275   -0.0160    0.0000 C   0  0  0  0  0  0  0  0  0
    1.9131   -0.4285    0.0000 N   0  0  0  0  0  0  0  0  0
    1.8268   -1.2490    0.0000 C   0  0  0  0  0  0  0  0  0
    1.0199   -1.4205    0.0000 C   0  0  0  0  0  0  0  0  0
    0.6074   -0.7060    0.0000 C   0  0  0  0  0  0  0  0  0
    1.1594   -0.0930    0.0000 C   0  0  0  0  0  0  0  0  0
    3.3420   -0.4285    0.0000 C   0  0  0  0  0  0  0  0  0
    4.0565   -0.0160    0.0000 C   0  0  0  0  0  0  0  0  0
    4.7710   -0.4285    0.0000 C   0  0  0  0  0  0  0  0  0
  1  2  1  0  0  0  0
  2  3  4  0  0  0  0
  2  7  4  0  0  0  0
  3  4  4  0  0  0  0
  4  5  4  0  0  0  0
  5  6  4  0  0  0  0
  5  8  1  0  0  0  0
  6  7  4  0  0  0  0
  8  9  2  0  0  0  0
  8 10  1  0  0  0  0
 10 11  1  0  0  0  0
 10 16  1  0  0  0  0
 11 12  1  0  0  0  0
 11 15  1  0  0  0  0
 12 13  1  0  0  0  0
 13 14  1  0  0  0  0
 14 15  1  0  0  0  0
 16 17  1  0  0  0  0
 17 18  1  0  0  0  0
M  END
>  <Name_Molregno>
339034

>  <Dopamine transporter>
7.09

>  <Norepinephrine transporter>
6.08

>  <Serotonin transporter>
5

$$$$
339040
  Marvin  02231216192D 0   1.00000     0.00000     0

 21 22  0  0  1  0  0  0  0  0999 V2000
    2.7866   -0.7668    0.0000 O   0  0  0  0  0  0  0  0  0
    2.0721   -1.1793    0.0000 C   0  0  0  0  0  0  0  0  0
    2.0721   -2.0043    0.0000 C   0  0  0  0  0  0  0  0  0
    1.3576   -2.4168    0.0000 N   0  0  0  0  0  0  0  0  0
    1.2714   -3.2372    0.0000 C   0  0  0  0  0  0  0  0  0
    0.4644   -3.4088    0.0000 C   0  0  0  0  0  0  0  0  0
    0.0519   -2.6943    0.0000 C   0  0  0  0  0  0  0  0  0
    0.6040   -2.0812    0.0000 C   0  0  0  0  0  0  0  0  0
    2.7866   -2.4168    0.0000 C   0  0  0  0  0  0  0  0  0
    3.5011   -2.0043    0.0000 C   0  0  0  0  0  0  0  0  0
    4.2155   -2.4168    0.0000 C   0  0  0  0  0  0  0  0  0
    1.3576   -0.7668    0.0000 C   0  0  0  0  0  0  0  0  0
    0.6432   -1.1793    0.0000 C   0  0  0  0  0  0  0  0  0
   -0.0713   -0.7668    0.0000 C   0  0  0  0  0  0  0  0  0
   -0.0713    0.0582    0.0000 C   0  0  0  0  0  0  0  0  0
   -0.7858    0.4707    0.0000 N   0  0  0  0  0  0  0  0  0
   -0.7858    1.2957    0.0000 C   0  0  0  0  0  0  0  0  0
   -1.5002    1.7082    0.0000 O   0  0  0  0  0  0  0  0  0
   -0.0713    1.7082    0.0000 C   0  0  0  0  0  0  0  0  0
    0.6432    0.4707    0.0000 C   0  0  0  0  0  0  0  0  0
    1.3576    0.0582    0.0000 C   0  0  0  0  0  0  0  0  0
  1  2  2  0  0  0  0
  2  3  1  0  0  0  0
  2 12  1  0  0  0  0
  3  4  1  0  0  0  0
  3  9  1  0  0  0  0
  4  5  1  0  0  0  0
  4  8  1  0  0  0  0
  5  6  1  0  0  0  0
  6  7  1  0  0  0  0
  7  8  1  0  0  0  0
  9 10  1  0  0  0  0
 10 11  1  0  0  0  0
 12 13  4  0  0  0  0
 12 21  4  0  0  0  0
 13 14  4  0  0  0  0
 14 15  4  0  0  0  0
 15 16  1  0  0  0  0
 15 20  4  0  0  0  0
 16 17  1  0  0  0  0
 17 18  2  0  0  0  0
 17 19  1  0  0  0  0
 20 21  4  0  0  0  0
M  END
>  <Name_Molregno>
339040

>  <Dopamine transporter>
7.52

>  <Norepinephrine transporter>
5.4

>  <Serotonin transporter>
5

$$$$
339041
  Marvin  02231216192D 0   1.00000     0.00000     0

 21 22  0  0  1  0  0  0  0  0999 V2000
   -0.1458    1.6542    0.0000 F   0  0  0  0  0  0  0  0  0
   -0.8603    1.2417    0.0000 C   0  0  0  0  0  0  0  0  0
   -1.2728    1.9562    0.0000 F   0  0  0  0  0  0  0  0  0
   -0.4478    0.5272    0.0000 F   0  0  0  0  0  0  0  0  0
   -1.5748    0.8292    0.0000 C   0  0  0  0  0  0  0  0  0
   -1.5748    0.0042    0.0000 C   0  0  0  0  0  0  0  0  0
   -2.2892   -0.4083    0.0000 C   0  0  0  0  0  0  0  0  0
   -3.0037    0.0042    0.0000 C   0  0  0  0  0  0  0  0  0
   -3.0037    0.8292    0.0000 C   0  0  0  0  0  0  0  0  0
   -2.2892    1.2417    0.0000 C   0  0  0  0  0  0  0  0  0
   -3.7182   -0.4083    0.0000 C   0  0  0  0  0  0  0  0  0
   -4.4326    0.0042    0.0000 O   0  0  0  0  0  0  0  0  0
   -3.7182   -1.2333    0.0000 C   0  0  0  0  0  0  0  0  0
   -4.4326   -1.6458    0.0000 N   0  0  0  0  0  0  0  0  0
   -4.5189   -2.4663    0.0000 C   0  0  0  0  0  0  0  0  0
   -5.3258   -2.6378    0.0000 C   0  0  0  0  0  0  0  0  0
   -5.7383   -1.9233    0.0000 C   0  0  0  0  0  0  0  0  0
   -5.1863   -1.3102    0.0000 C   0  0  0  0  0  0  0  0  0
   -3.0037   -1.6458    0.0000 C   0  0  0  0  0  0  0  0  0
   -2.2892   -1.2333    0.0000 C   0  0  0  0  0  0  0  0  0
   -1.5748   -1.6458    0.0000 C   0  0  0  0  0  0  0  0  0
  1  2  1  0  0  0  0
  2  3  1  0  0  0  0
  2  4  1  0  0  0  0
  2  5  1  0  0  0  0
  5  6  4  0  0  0  0
  5 10  4  0  0  0  0
  6  7  4  0  0  0  0
  7  8  4  0  0  0  0
  8  9  4  0  0  0  0
  8 11  1  0  0  0  0
  9 10  4  0  0  0  0
 11 12  2  0  0  0  0
 11 13  1  0  0  0  0
 13 14  1  0  0  0  0
 13 19  1  0  0  0  0
 14 15  1  0  0  0  0
 14 18  1  0  0  0  0
 15 16  1  0  0  0  0
 16 17  1  0  0  0  0
 17 18  1  0  0  0  0
 19 20  1  0  0  0  0
 20 21  1  0  0  0  0
M  END
>  <Name_Molregno>
339041

>  <Dopamine transporter>
5

>  <Norepinephrine transporter>
5

>  <Serotonin transporter>
6.02

$$$$
339042
  Marvin  02231216192D 0   1.00000     0.00000     0

 20 21  0  0  1  0  0  0  0  0999 V2000
    1.5190   -1.0623    0.0000 O   0  0  0  0  0  0  0  0  0
    0.8045   -1.4748    0.0000 C   0  0  0  0  0  0  0  0  0
    0.8045   -2.2998    0.0000 C   0  0  0  0  0  0  0  0  0
    0.0901   -2.7123    0.0000 N   0  0  0  0  0  0  0  0  0
    0.0038   -3.5328    0.0000 C   0  0  0  0  0  0  0  0  0
   -0.8032   -3.7044    0.0000 C   0  0  0  0  0  0  0  0  0
   -1.2157   -2.9899    0.0000 C   0  0  0  0  0  0  0  0  0
   -0.6636   -2.3768    0.0000 C   0  0  0  0  0  0  0  0  0
    1.5190   -2.7123    0.0000 C   0  0  0  0  0  0  0  0  0
    2.2335   -2.2998    0.0000 C   0  0  0  0  0  0  0  0  0
    2.9479   -2.7123    0.0000 C   0  0  0  0  0  0  0  0  0
    0.0901   -1.0623    0.0000 C   0  0  0  0  0  0  0  0  0
   -0.6244   -1.4748    0.0000 C   0  0  0  0  0  0  0  0  0
   -1.3389   -1.0623    0.0000 C   0  0  0  0  0  0  0  0  0
   -1.3389   -0.2373    0.0000 C   0  0  0  0  0  0  0  0  0
   -0.6244    0.1752    0.0000 C   0  0  0  0  0  0  0  0  0
    0.0901   -0.2373    0.0000 C   0  0  0  0  0  0  0  0  0
   -2.0534    0.1752    0.0000 C   0  0  0  0  0  0  0  0  0
   -2.7678    0.5877    0.0000 C   0  0  0  0  0  0  0  0  0
   -3.4823    1.0002    0.0000 C   0  0  0  0  0  0  0  0  0
  1  2  2  0  0  0  0
  2  3  1  0  0  0  0
  2 12  1  0  0  0  0
  3  4  1  0  0  0  0
  3  9  1  0  0  0  0
  4  5  1  0  0  0  0
  4  8  1  0  0  0  0
  5  6  1  0  0  0  0
  6  7  1  0  0  0  0
  7  8  1  0  0  0  0
  9 10  1  0  0  0  0
 10 11  1  0  0  0  0
 12 13  4  0  0  0  0
 12 17  4  0  0  0  0
 13 14  4  0  0  0  0
 14 15  4  0  0  0  0
 15 16  4  0  0  0  0
 15 18  1  0  0  0  0
 16 17  4  0  0  0  0
 18 19  3  0  0  0  0
 19 20  1  0  0  0  0
M  END
>  <Name_Molregno>
339042

>  <Dopamine transporter>
7.21

>  <Norepinephrine transporter>
7.16

>  <Serotonin transporter>
5.17

$$$$
339047
  Marvin  02231216192D 0   1.00000     0.00000     0

 18 19  0  0  1  0  0  0  0  0999 V2000
    1.5183   -0.5071    0.0000 O   0  0  0  0  0  0  0  0  0
    0.8039   -0.9196    0.0000 C   0  0  0  0  0  0  0  0  0
    0.8039   -1.7446    0.0000 C   0  0  0  0  0  0  0  0  0
    0.0894   -2.1571    0.0000 N   0  0  0  0  0  0  0  0  0
    0.0032   -2.9776    0.0000 C   0  0  0  0  0  0  0  0  0
   -0.8038   -3.1492    0.0000 C   0  0  0  0  0  0  0  0  0
   -1.2163   -2.4347    0.0000 C   0  0  0  0  0  0  0  0  0
   -0.6643   -1.8216    0.0000 C   0  0  0  0  0  0  0  0  0
    1.5183   -2.1571    0.0000 C   0  0  0  0  0  0  0  0  0
    2.2328   -1.7446    0.0000 C   0  0  0  0  0  0  0  0  0
    2.9473   -2.1571    0.0000 C   0  0  0  0  0  0  0  0  0
    0.0894   -0.5071    0.0000 C   0  0  0  0  0  0  0  0  0
   -0.6251   -0.9196    0.0000 C   0  0  0  0  0  0  0  0  0
   -1.3395   -0.5071    0.0000 C   0  0  0  0  0  0  0  0  0
   -1.3395    0.3179    0.0000 C   0  0  0  0  0  0  0  0  0
   -0.6251    0.7304    0.0000 C   0  0  0  0  0  0  0  0  0
    0.0894    0.3179    0.0000 C   0  0  0  0  0  0  0  0  0
    0.8039    0.7304    0.0000 C   0  0  0  0  0  0  0  0  0
  1  2  2  0  0  0  0
  2  3  1  0  0  0  0
  2 12  1  0  0  0  0
  3  4  1  0  0  0  0
  3  9  1  0  0  0  0
  4  5  1  0  0  0  0
  4  8  1  0  0  0  0
  5  6  1  0  0  0  0
  6  7  1  0  0  0  0
  7  8  1  0  0  0  0
  9 10  1  0  0  0  0
 10 11  1  0  0  0  0
 12 13  4  0  0  0  0
 12 17  4  0  0  0  0
 13 14  4  0  0  0  0
 14 15  4  0  0  0  0
 15 16  4  0  0  0  0
 16 17  4  0  0  0  0
 17 18  1  0  0  0  0
M  END
>  <Name_Molregno>
339047

>  <Dopamine transporter>
7.22

>  <Norepinephrine transporter>
6.37

>  <Serotonin transporter>
5.43

$$$$
339048
  Marvin  02231216192D 0   1.00000     0.00000     0

 23 25  0  0  1  0  0  0  0  0999 V2000
    3.4335   -0.8066    0.0000 O   0  0  0  0  0  0  0  0  0
    2.7190   -1.2191    0.0000 C   0  0  0  0  0  0  0  0  0
    2.7190   -2.0441    0.0000 C   0  0  0  0  0  0  0  0  0
    2.0046   -2.4566    0.0000 N   0  0  0  0  0  0  0  0  0
    1.9183   -3.2771    0.0000 C   0  0  0  0  0  0  0  0  0
    1.1114   -3.4486    0.0000 C   0  0  0  0  0  0  0  0  0
    0.6989   -2.7341    0.0000 C   0  0  0  0  0  0  0  0  0
    1.2509   -2.1210    0.0000 C   0  0  0  0  0  0  0  0  0
    3.4335   -2.4566    0.0000 C   0  0  0  0  0  0  0  0  0
    4.1480   -2.0441    0.0000 C   0  0  0  0  0  0  0  0  0
    4.8624   -2.4566    0.0000 C   0  0  0  0  0  0  0  0  0
    2.0046   -0.8066    0.0000 C   0  0  0  0  0  0  0  0  0
    1.2901   -1.2191    0.0000 C   0  0  0  0  0  0  0  0  0
    0.5756   -0.8066    0.0000 C   0  0  0  0  0  0  0  0  0
    0.5756    0.0184    0.0000 C   0  0  0  0  0  0  0  0  0
    1.2901    0.4309    0.0000 C   0  0  0  0  0  0  0  0  0
    2.0046    0.0184    0.0000 C   0  0  0  0  0  0  0  0  0
   -0.1389    0.4309    0.0000 C   0  0  0  0  0  0  0  0  0
   -0.8925    0.0954    0.0000 N   0  0  0  0  0  0  0  0  0
   -1.4446    0.7085    0.0000 C   0  0  0  0  0  0  0  0  0
   -1.0321    1.4229    0.0000 C   0  0  0  0  0  0  0  0  0
   -0.2251    1.2514    0.0000 C   0  0  0  0  0  0  0  0  0
   -1.0641   -0.7116    0.0000 C   0  0  0  0  0  0  0  0  0
  1  2  2  0  0  0  0
  2  3  1  0  0  0  0
  2 12  1  0  0  0  0
  3  4  1  0  0  0  0
  3  9  1  0  0  0  0
  4  5  1  0  0  0  0
  4  8  1  0  0  0  0
  5  6  1  0  0  0  0
  6  7  1  0  0  0  0
  7  8  1  0  0  0  0
  9 10  1  0  0  0  0
 10 11  1  0  0  0  0
 12 13  4  0  0  0  0
 12 17  4  0  0  0  0
 13 14  4  0  0  0  0
 14 15  4  0  0  0  0
 15 16  4  0  0  0  0
 15 18  1  0  0  0  0
 16 17  4  0  0  0  0
 18 19  4  0  0  0  0
 18 22  4  0  0  0  0
 19 20  4  0  0  0  0
 19 23  1  0  0  0  0
 20 21  4  0  0  0  0
 21 22  4  0  0  0  0
M  END
>  <Name_Molregno>
339048

>  <Dopamine transporter>
5.41

>  <Norepinephrine transporter>
5

>  <Serotonin transporter>
5

$$$$
339054
  Marvin  02231216192D 0   1.00000     0.00000     0

 18 19  0  0  1  0  0  0  0  0999 V2000
   -1.5172   -2.3075    0.0000 O   0  0  0  0  0  0  0  0  0
   -0.8028   -1.8950    0.0000 C   0  0  0  0  0  0  0  0  0
   -0.8028   -1.0700    0.0000 C   0  0  0  0  0  0  0  0  0
   -0.0883   -0.6575    0.0000 C   0  0  0  0  0  0  0  0  0
   -0.0883    0.1675    0.0000 N   0  0  0  0  0  0  0  0  0
   -0.7557    0.6524    0.0000 C   0  0  0  0  0  0  0  0  0
   -0.5008    1.4370    0.0000 C   0  0  0  0  0  0  0  0  0
    0.3242    1.4370    0.0000 C   0  0  0  0  0  0  0  0  0
    0.5792    0.6524    0.0000 C   0  0  0  0  0  0  0  0  0
    0.6262   -1.0700    0.0000 C   0  0  0  0  0  0  0  0  0
    1.3407   -0.6575    0.0000 C   0  0  0  0  0  0  0  0  0
   -0.0883   -2.3075    0.0000 C   0  0  0  0  0  0  0  0  0
    0.6262   -1.8950    0.0000 C   0  0  0  0  0  0  0  0  0
    1.3407   -2.3075    0.0000 C   0  0  0  0  0  0  0  0  0
    1.3407   -3.1325    0.0000 C   0  0  0  0  0  0  0  0  0
    0.6262   -3.5450    0.0000 C   0  0  0  0  0  0  0  0  0
   -0.0883   -3.1325    0.0000 C   0  0  0  0  0  0  0  0  0
    2.0551   -3.5450    0.0000 C   0  0  0  0  0  0  0  0  0
  1  2  2  0  0  0  0
  2  3  1  0  0  0  0
  2 12  1  0  0  0  0
  3  4  1  0  0  0  0
  4  5  1  0  0  0  0
  4 10  1  0  0  0  0
  5  6  1  0  0  0  0
  5  9  1  0  0  0  0
  6  7  1  0  0  0  0
  7  8  1  0  0  0  0
  8  9  1  0  0  0  0
 10 11  1  0  0  0  0
 12 13  4  0  0  0  0
 12 17  4  0  0  0  0
 13 14  4  0  0  0  0
 14 15  4  0  0  0  0
 15 16  4  0  0  0  0
 15 18  1  0  0  0  0
 16 17  4  0  0  0  0
M  END
>  <Name_Molregno>
339054

>  <Dopamine transporter>
5

>  <Norepinephrine transporter>
5

>  <Serotonin transporter>
5

$$$$
339055
  Marvin  02231216192D 0   1.00000     0.00000     0

 19 20  0  0  1  0  0  0  0  0999 V2000
    1.8453    3.3323    0.0000 Cl  0  0  0  0  0  0  0  0  0
    1.8453    2.5073    0.0000 C   0  0  0  0  0  0  0  0  0
    2.5598    2.0948    0.0000 C   0  0  0  0  0  0  0  0  0
    2.5598    1.2698    0.0000 C   0  0  0  0  0  0  0  0  0
    1.8453    0.8573    0.0000 C   0  0  0  0  0  0  0  0  0
    1.1308    1.2698    0.0000 C   0  0  0  0  0  0  0  0  0
    1.1308    2.0948    0.0000 C   0  0  0  0  0  0  0  0  0
    0.4163    2.5073    0.0000 Cl  0  0  0  0  0  0  0  0  0
    3.2742    0.8573    0.0000 C   0  0  0  0  0  0  0  0  0
    3.9887    1.2698    0.0000 O   0  0  0  0  0  0  0  0  0
    3.2742    0.0323    0.0000 C   0  0  0  0  0  0  0  0  0
    3.9887   -0.3802    0.0000 C   0  0  0  0  0  0  0  0  0
    3.9887   -1.2052    0.0000 N   0  0  0  0  0  0  0  0  0
    4.6561   -1.6901    0.0000 C   0  0  0  0  0  0  0  0  0
    4.4012   -2.4748    0.0000 C   0  0  0  0  0  0  0  0  0
    3.5762   -2.4748    0.0000 C   0  0  0  0  0  0  0  0  0
    3.3213   -1.6901    0.0000 C   0  0  0  0  0  0  0  0  0
    4.7032    0.0323    0.0000 C   0  0  0  0  0  0  0  0  0
    5.4176   -0.3802    0.0000 C   0  0  0  0  0  0  0  0  0
  1  2  1  0  0  0  0
  2  3  4  0  0  0  0
  2  7  4  0  0  0  0
  3  4  4  0  0  0  0
  4  5  4  0  0  0  0
  4  9  1  0  0  0  0
  5  6  4  0  0  0  0
  6  7  4  0  0  0  0
  7  8  1  0  0  0  0
  9 10  2  0  0  0  0
  9 11  1  0  0  0  0
 11 12  1  0  0  0  0
 12 13  1  0  0  0  0
 12 18  1  0  0  0  0
 13 14  1  0  0  0  0
 13 17  1  0  0  0  0
 14 15  1  0  0  0  0
 15 16  1  0  0  0  0
 16 17  1  0  0  0  0
 18 19  1  0  0  0  0
M  END
>  <Name_Molregno>
339055

>  <Dopamine transporter>
5.07

>  <Norepinephrine transporter>
5

>  <Serotonin transporter>
5.41

$$$$
339057
  Marvin  02231216192D 0   1.00000     0.00000     0

 17 18  0  0  1  0  0  0  0  0999 V2000
   -0.5630   -1.7034    0.0000 O   0  0  0  0  0  0  0  0  0
    0.1514   -1.2909    0.0000 C   0  0  0  0  0  0  0  0  0
    0.8659   -1.7034    0.0000 C   0  0  0  0  0  0  0  0  0
    0.8659   -2.5284    0.0000 N   0  0  0  0  0  0  0  0  0
    1.5333   -3.0133    0.0000 C   0  0  0  0  0  0  0  0  0
    1.2784   -3.7979    0.0000 C   0  0  0  0  0  0  0  0  0
    0.4534   -3.7979    0.0000 C   0  0  0  0  0  0  0  0  0
    0.1985   -3.0133    0.0000 C   0  0  0  0  0  0  0  0  0
    1.5804   -1.2909    0.0000 C   0  0  0  0  0  0  0  0  0
    2.2948   -0.8784    0.0000 C   0  0  0  0  0  0  0  0  0
    0.1514   -0.4659    0.0000 C   0  0  0  0  0  0  0  0  0
   -0.5630   -0.0534    0.0000 C   0  0  0  0  0  0  0  0  0
   -0.5630    0.7716    0.0000 C   0  0  0  0  0  0  0  0  0
    0.1514    1.1841    0.0000 C   0  0  0  0  0  0  0  0  0
    0.8659    0.7716    0.0000 C   0  0  0  0  0  0  0  0  0
    0.8659   -0.0534    0.0000 C   0  0  0  0  0  0  0  0  0
    0.1514    2.0091    0.0000 C   0  0  0  0  0  0  0  0  0
  1  2  2  0  0  0  0
  2  3  1  0  0  0  0
  2 11  1  0  0  0  0
  3  4  1  0  0  0  0
  3  9  1  0  0  0  0
  4  5  1  0  0  0  0
  4  8  1  0  0  0  0
  5  6  1  0  0  0  0
  6  7  1  0  0  0  0
  7  8  1  0  0  0  0
  9 10  3  0  0  0  0
 11 12  4  0  0  0  0
 11 16  4  0  0  0  0
 12 13  4  0  0  0  0
 13 14  4  0  0  0  0
 14 15  4  0  0  0  0
 14 17  1  0  0  0  0
 15 16  4  0  0  0  0
M  END
>  <Name_Molregno>
339057

>  <Dopamine transporter>
5.64

>  <Norepinephrine transporter>
5.39

>  <Serotonin transporter>
5

$$$$
339144
  Marvin  02231216192D 0   1.00000     0.00000     0

 19 19  0  0  1  0  0  0  0  0999 V2000
    0.0502   -3.7021    0.0000 Cl  0  0  0  0  0  0  0  0  0
   -0.3623   -2.9877    0.0000 C   0  0  0  0  0  0  0  0  0
   -1.1873   -2.9877    0.0000 C   0  0  0  0  0  0  0  0  0
   -1.5998   -2.2732    0.0000 C   0  0  0  0  0  0  0  0  0
   -1.1873   -1.5587    0.0000 C   0  0  0  0  0  0  0  0  0
   -0.3623   -1.5587    0.0000 C   0  0  0  0  0  0  0  0  0
    0.0502   -2.2732    0.0000 C   0  0  0  0  0  0  0  0  0
    0.8752   -2.2732    0.0000 Cl  0  0  0  0  0  0  0  0  0
   -2.4248   -2.2732    0.0000 C   0  0  0  0  0  0  0  0  0
   -2.8373   -2.9877    0.0000 O   0  0  0  0  0  0  0  0  0
   -2.8373   -1.5587    0.0000 C   0  0  0  0  0  0  0  0  0
   -3.6623   -1.5587    0.0000 N   0  0  0  0  0  0  0  0  0
   -4.0748   -0.8442    0.0000 C   0  0  0  0  0  0  0  0  0
   -4.8998   -0.8442    0.0000 C   0  0  0  0  0  0  0  0  0
   -5.3123   -0.1298    0.0000 C   0  0  0  0  0  0  0  0  0
   -6.1373   -0.1298    0.0000 C   0  0  0  0  0  0  0  0  0
   -2.4248   -0.8442    0.0000 C   0  0  0  0  0  0  0  0  0
   -2.8373   -0.1298    0.0000 C   0  0  0  0  0  0  0  0  0
   -2.4248    0.5847    0.0000 C   0  0  0  0  0  0  0  0  0
  1  2  1  0  0  0  0
  2  3  4  0  0  0  0
  2  7  4  0  0  0  0
  3  4  4  0  0  0  0
  4  5  4  0  0  0  0
  4  9  1  0  0  0  0
  5  6  4  0  0  0  0
  6  7  4  0  0  0  0
  7  8  1  0  0  0  0
  9 10  2  0  0  0  0
  9 11  1  0  0  0  0
 11 12  1  0  0  0  0
 11 17  1  0  0  0  0
 12 13  1  0  0  0  0
 13 14  1  0  0  0  0
 14 15  1  0  0  0  0
 15 16  1  0  0  0  0
 17 18  1  0  0  0  0
 18 19  1  0  0  0  0
M  END
>  <Name_Molregno>
339144

>  <Dopamine transporter>
6.28

>  <Norepinephrine transporter>
5.38

>  <Serotonin transporter>
5.29

$$$$
339151
  Marvin  02231216192D 0   1.00000     0.00000     0

 20 21  0  0  1  0  0  0  0  0999 V2000
    5.3153    0.7989    0.0000 Cl  0  0  0  0  0  0  0  0  0
    4.6009    1.2114    0.0000 C   0  0  0  0  0  0  0  0  0
    3.8864    0.7989    0.0000 C   0  0  0  0  0  0  0  0  0
    3.1719    1.2114    0.0000 C   0  0  0  0  0  0  0  0  0
    3.1719    2.0364    0.0000 C   0  0  0  0  0  0  0  0  0
    3.8864    2.4489    0.0000 C   0  0  0  0  0  0  0  0  0
    4.6009    2.0364    0.0000 C   0  0  0  0  0  0  0  0  0
    5.3153    2.4489    0.0000 Cl  0  0  0  0  0  0  0  0  0
    2.4575    0.7989    0.0000 C   0  0  0  0  0  0  0  0  0
    1.7430    1.2114    0.0000 O   0  0  0  0  0  0  0  0  0
    2.4575   -0.0261    0.0000 C   0  0  0  0  0  0  0  0  0
    1.7430   -0.4386    0.0000 N   0  0  0  0  0  0  0  0  0
    1.7430   -1.2636    0.0000 C   0  0  0  0  0  0  0  0  0
    1.0285   -1.6761    0.0000 C   0  0  0  0  0  0  0  0  0
    0.3140   -1.2636    0.0000 C   0  0  0  0  0  0  0  0  0
    0.3140   -0.4386    0.0000 C   0  0  0  0  0  0  0  0  0
    1.0285   -0.0261    0.0000 C   0  0  0  0  0  0  0  0  0
    3.1719   -0.4386    0.0000 C   0  0  0  0  0  0  0  0  0
    3.8864   -0.0261    0.0000 C   0  0  0  0  0  0  0  0  0
    4.6009   -0.4386    0.0000 C   0  0  0  0  0  0  0  0  0
  1  2  1  0  0  0  0
  2  3  4  0  0  0  0
  2  7  4  0  0  0  0
  3  4  4  0  0  0  0
  4  5  4  0  0  0  0
  4  9  1  0  0  0  0
  5  6  4  0  0  0  0
  6  7  4  0  0  0  0
  7  8  1  0  0  0  0
  9 10  2  0  0  0  0
  9 11  1  0  0  0  0
 11 12  1  0  0  0  0
 11 18  1  0  0  0  0
 12 13  1  0  0  0  0
 12 17  1  0  0  0  0
 13 14  1  0  0  0  0
 14 15  1  0  0  0  0
 15 16  1  0  0  0  0
 16 17  1  0  0  0  0
 18 19  1  0  0  0  0
 19 20  1  0  0  0  0
M  END
>  <Name_Molregno>
339151

>  <Dopamine transporter>
6.84

>  <Norepinephrine transporter>
5.63

>  <Serotonin transporter>
5.61

$$$$
339317
  Marvin  02231216192D 0   1.00000     0.00000     0

 19 20  0  0  1  0  0  0  0  0999 V2000
    5.5678    3.8040    0.0000 O   0  0  0  0  0  0  0  0  0
    5.5678    2.9790    0.0000 C   0  0  0  0  0  0  0  0  0
    4.8533    2.5665    0.0000 C   0  0  0  0  0  0  0  0  0
    4.8533    1.7415    0.0000 C   0  0  0  0  0  0  0  0  0
    4.1389    1.3290    0.0000 C   0  0  0  0  0  0  0  0  0
    3.4244    1.7415    0.0000 C   0  0  0  0  0  0  0  0  0
    3.4244    2.5665    0.0000 C   0  0  0  0  0  0  0  0  0
    4.1389    2.9790    0.0000 C   0  0  0  0  0  0  0  0  0
    2.7099    1.3290    0.0000 C   0  0  0  0  0  0  0  0  0
    1.9955    1.7415    0.0000 O   0  0  0  0  0  0  0  0  0
    2.7099    0.5040    0.0000 C   0  0  0  0  0  0  0  0  0
    1.9955    0.0915    0.0000 N   0  0  0  0  0  0  0  0  0
    1.9092   -0.7290    0.0000 C   0  0  0  0  0  0  0  0  0
    1.1022   -0.9005    0.0000 C   0  0  0  0  0  0  0  0  0
    0.6897   -0.1861    0.0000 C   0  0  0  0  0  0  0  0  0
    1.2418    0.4270    0.0000 C   0  0  0  0  0  0  0  0  0
    3.4244    0.0915    0.0000 C   0  0  0  0  0  0  0  0  0
    4.1389    0.5040    0.0000 C   0  0  0  0  0  0  0  0  0
    4.8533    0.0915    0.0000 C   0  0  0  0  0  0  0  0  0
  1  2  1  0  0  0  0
  2  3  1  0  0  0  0
  3  4  4  0  0  0  0
  3  8  4  0  0  0  0
  4  5  4  0  0  0  0
  5  6  4  0  0  0  0
  6  7  4  0  0  0  0
  6  9  1  0  0  0  0
  7  8  4  0  0  0  0
  9 10  2  0  0  0  0
  9 11  1  0  0  0  0
 11 12  1  0  0  0  0
 11 17  1  0  0  0  0
 12 13  1  0  0  0  0
 12 16  1  0  0  0  0
 13 14  1  0  0  0  0
 14 15  1  0  0  0  0
 15 16  1  0  0  0  0
 17 18  1  0  0  0  0
 18 19  1  0  0  0  0
M  END
>  <Name_Molregno>
339317

>  <Dopamine transporter>
7.31

>  <Norepinephrine transporter>
6.82

>  <Serotonin transporter>
5

$$$$
339318
  Marvin  02231216192D 0   1.00000     0.00000     0

 18 19  0  0  1  0  0  0  0  0999 V2000
    5.4854    2.4590    0.0000 O   0  0  0  0  0  0  0  0  0
    4.7710    2.0465    0.0000 C   0  0  0  0  0  0  0  0  0
    4.7710    1.2215    0.0000 C   0  0  0  0  0  0  0  0  0
    4.0565    0.8090    0.0000 C   0  0  0  0  0  0  0  0  0
    3.3420    1.2215    0.0000 C   0  0  0  0  0  0  0  0  0
    3.3420    2.0465    0.0000 C   0  0  0  0  0  0  0  0  0
    4.0565    2.4590    0.0000 C   0  0  0  0  0  0  0  0  0
    2.6275    0.8090    0.0000 C   0  0  0  0  0  0  0  0  0
    1.9131    1.2215    0.0000 O   0  0  0  0  0  0  0  0  0
    2.6275   -0.0160    0.0000 C   0  0  0  0  0  0  0  0  0
    1.9131   -0.4285    0.0000 N   0  0  0  0  0  0  0  0  0
    1.8268   -1.2490    0.0000 C   0  0  0  0  0  0  0  0  0
    1.0199   -1.4205    0.0000 C   0  0  0  0  0  0  0  0  0
    0.6074   -0.7060    0.0000 C   0  0  0  0  0  0  0  0  0
    1.1594   -0.0930    0.0000 C   0  0  0  0  0  0  0  0  0
    3.3420   -0.4285    0.0000 C   0  0  0  0  0  0  0  0  0
    4.0565   -0.0160    0.0000 C   0  0  0  0  0  0  0  0  0
    4.7710   -0.4285    0.0000 C   0  0  0  0  0  0  0  0  0
  1  2  1  0  0  0  0
  2  3  4  0  0  0  0
  2  7  4  0  0  0  0
  3  4  4  0  0  0  0
  4  5  4  0  0  0  0
  5  6  4  0  0  0  0
  5  8  1  0  0  0  0
  6  7  4  0  0  0  0
  8  9  2  0  0  0  0
  8 10  1  0  0  0  0
 10 11  1  0  0  0  0
 10 16  1  0  0  0  0
 11 12  1  0  0  0  0
 11 15  1  0  0  0  0
 12 13  1  0  0  0  0
 13 14  1  0  0  0  0
 14 15  1  0  0  0  0
 16 17  1  0  0  0  0
 17 18  1  0  0  0  0
M  END
>  <Name_Molregno>
339318

>  <Dopamine transporter>
6.9

>  <Norepinephrine transporter>
5.89

>  <Serotonin transporter>
5

$$$$
339319
  Marvin  02231216192D 0   1.00000     0.00000     0

 20 21  0  0  1  0  0  0  0  0999 V2000
    0.8216   -0.7089    0.0000 O   0  0  0  0  0  0  0  0  0
    0.1071   -1.1214    0.0000 C   0  0  0  0  0  0  0  0  0
    0.1071   -1.9464    0.0000 C   0  0  0  0  0  0  0  0  0
   -0.6074   -2.3589    0.0000 N   0  0  0  0  0  0  0  0  0
   -0.6936   -3.1794    0.0000 C   0  0  0  0  0  0  0  0  0
   -1.5006   -3.3509    0.0000 C   0  0  0  0  0  0  0  0  0
   -1.9131   -2.6365    0.0000 C   0  0  0  0  0  0  0  0  0
   -1.3610   -2.0234    0.0000 C   0  0  0  0  0  0  0  0  0
    0.8216   -2.3589    0.0000 C   0  0  0  0  0  0  0  0  0
    1.5361   -1.9464    0.0000 C   0  0  0  0  0  0  0  0  0
    2.2505   -2.3589    0.0000 C   0  0  0  0  0  0  0  0  0
   -0.6074   -0.7089    0.0000 C   0  0  0  0  0  0  0  0  0
   -1.3218   -1.1214    0.0000 C   0  0  0  0  0  0  0  0  0
   -2.0363   -0.7089    0.0000 C   0  0  0  0  0  0  0  0  0
   -2.0363    0.1161    0.0000 C   0  0  0  0  0  0  0  0  0
   -2.7508    0.5286    0.0000 N   0  3  0  0  0  0  0  0  0
   -3.4652    0.1161    0.0000 O   0  5  0  0  0  0  0  0  0
   -2.7508    1.3536    0.0000 O   0  5  0  0  0  0  0  0  0
   -1.3218    0.5286    0.0000 C   0  0  0  0  0  0  0  0  0
   -0.6074    0.1161    0.0000 C   0  0  0  0  0  0  0  0  0
  1  2  2  0  0  0  0
  2  3  1  0  0  0  0
  2 12  1  0  0  0  0
  3  4  1  0  0  0  0
  3  9  1  0  0  0  0
  4  5  1  0  0  0  0
  4  8  1  0  0  0  0
  5  6  1  0  0  0  0
  6  7  1  0  0  0  0
  7  8  1  0  0  0  0
  9 10  1  0  0  0  0
 10 11  1  0  0  0  0
 12 13  4  0  0  0  0
 12 20  4  0  0  0  0
 13 14  4  0  0  0  0
 14 15  4  0  0  0  0
 15 16  1  0  0  0  0
 15 19  4  0  0  0  0
 16 17  1  0  0  0  0
 16 18  1  0  0  0  0
 19 20  4  0  0  0  0
M  CHG  3  16   1  17  -1  18  -1
M  END
>  <Name_Molregno>
339319

>  <Dopamine transporter>
6.58

>  <Norepinephrine transporter>
5.57

>  <Serotonin transporter>
5.61

$$$$
339331
  Marvin  02231216192D 0   1.00000     0.00000     0

 21 23  0  0  1  0  0  0  0  0999 V2000
   -1.3449   -0.3619    0.0000 O   0  0  0  0  0  0  0  0  0
   -0.6305   -0.7744    0.0000 C   0  0  0  0  0  0  0  0  0
    0.0840   -0.3619    0.0000 C   0  0  0  0  0  0  0  0  0
    0.0840    0.4631    0.0000 N   0  0  0  0  0  0  0  0  0
   -0.5834    0.9480    0.0000 C   0  0  0  0  0  0  0  0  0
   -0.3285    1.7326    0.0000 C   0  0  0  0  0  0  0  0  0
    0.4965    1.7326    0.0000 C   0  0  0  0  0  0  0  0  0
    0.7514    0.9480    0.0000 C   0  0  0  0  0  0  0  0  0
    0.7985   -0.7744    0.0000 C   0  0  0  0  0  0  0  0  0
    1.5130   -0.3619    0.0000 C   0  0  0  0  0  0  0  0  0
    2.2274   -0.7744    0.0000 C   0  0  0  0  0  0  0  0  0
   -0.6305   -1.5994    0.0000 C   0  0  0  0  0  0  0  0  0
   -1.3449   -2.0119    0.0000 C   0  0  0  0  0  0  0  0  0
   -1.3449   -2.8369    0.0000 C   0  0  0  0  0  0  0  0  0
   -0.6305   -3.2494    0.0000 C   0  0  0  0  0  0  0  0  0
    0.0840   -2.8369    0.0000 C   0  0  0  0  0  0  0  0  0
    0.0840   -2.0119    0.0000 C   0  0  0  0  0  0  0  0  0
   -0.6305   -4.0744    0.0000 C   0  0  0  0  0  0  0  0  0
   -1.3449   -4.4869    0.0000 C   0  0  0  0  0  0  0  0  0
   -2.0594   -4.0744    0.0000 C   0  0  0  0  0  0  0  0  0
   -2.0594   -3.2494    0.0000 C   0  0  0  0  0  0  0  0  0
  1  2  2  0  0  0  0
  2  3  1  0  0  0  0
  2 12  1  0  0  0  0
  3  4  1  0  0  0  0
  3  9  1  0  0  0  0
  4  5  1  0  0  0  0
  4  8  1  0  0  0  0
  5  6  1  0  0  0  0
  6  7  1  0  0  0  0
  7  8  1  0  0  0  0
  9 10  1  0  0  0  0
 10 11  1  0  0  0  0
 12 13  4  0  0  0  0
 12 17  4  0  0  0  0
 13 14  4  0  0  0  0
 14 15  4  0  0  0  0
 14 21  4  0  0  0  0
 15 16  4  0  0  0  0
 15 18  4  0  0  0  0
 16 17  4  0  0  0  0
 18 19  4  0  0  0  0
 19 20  4  0  0  0  0
 20 21  4  0  0  0  0
M  END
>  <Name_Molregno>
339331

>  <Dopamine transporter>
7.7

>  <Norepinephrine transporter>
6.87

>  <Serotonin transporter>
7.48

$$$$
339339
  Marvin  02231216192D 0   1.00000     0.00000     0

 18 19  0  0  1  0  0  0  0  0999 V2000
    1.5985   -0.4600    0.0000 O   0  0  0  0  0  0  0  0  0
    0.8840   -0.8725    0.0000 C   0  0  0  0  0  0  0  0  0
    0.8840   -1.6975    0.0000 C   0  0  0  0  0  0  0  0  0
    0.1695   -2.1100    0.0000 N   0  0  0  0  0  0  0  0  0
    0.0833   -2.9305    0.0000 C   0  0  0  0  0  0  0  0  0
   -0.7237   -3.1020    0.0000 C   0  0  0  0  0  0  0  0  0
   -1.1362   -2.3875    0.0000 C   0  0  0  0  0  0  0  0  0
   -0.5842   -1.7744    0.0000 C   0  0  0  0  0  0  0  0  0
    1.5985   -2.1100    0.0000 C   0  0  0  0  0  0  0  0  0
    2.3129   -1.6975    0.0000 C   0  0  0  0  0  0  0  0  0
    3.0274   -2.1100    0.0000 C   0  0  0  0  0  0  0  0  0
    0.1695   -0.4600    0.0000 C   0  0  0  0  0  0  0  0  0
   -0.5450   -0.8725    0.0000 C   0  0  0  0  0  0  0  0  0
   -1.2594   -0.4600    0.0000 C   0  0  0  0  0  0  0  0  0
   -1.2594    0.3650    0.0000 C   0  0  0  0  0  0  0  0  0
   -0.5450    0.7775    0.0000 C   0  0  0  0  0  0  0  0  0
    0.1695    0.3650    0.0000 C   0  0  0  0  0  0  0  0  0
   -1.9739   -0.8725    0.0000 C   0  0  0  0  0  0  0  0  0
  1  2  2  0  0  0  0
  2  3  1  0  0  0  0
  2 12  1  0  0  0  0
  3  4  1  0  0  0  0
  3  9  1  0  0  0  0
  4  5  1  0  0  0  0
  4  8  1  0  0  0  0
  5  6  1  0  0  0  0
  6  7  1  0  0  0  0
  7  8  1  0  0  0  0
  9 10  1  0  0  0  0
 10 11  1  0  0  0  0
 12 13  4  0  0  0  0
 12 17  4  0  0  0  0
 13 14  4  0  0  0  0
 14 15  4  0  0  0  0
 14 18  1  0  0  0  0
 15 16  4  0  0  0  0
 16 17  4  0  0  0  0
M  END
>  <Name_Molregno>
339339

>  <Dopamine transporter>
7.29

>  <Norepinephrine transporter>
6.67

>  <Serotonin transporter>
5.23

$$$$
339502
  Marvin  02231216192D 0   1.00000     0.00000     0

 19 20  0  0  1  0  0  0  0  0999 V2000
   -0.6390    2.2805    0.0000 O   0  0  0  0  0  0  0  0  0
   -0.6390    3.1055    0.0000 C   0  0  0  0  0  0  0  0  0
   -1.3535    1.8680    0.0000 C   0  0  0  0  0  0  0  0  0
   -1.3535    1.0430    0.0000 C   0  0  0  0  0  0  0  0  0
   -2.0679    0.6305    0.0000 C   0  0  0  0  0  0  0  0  0
   -2.7824    1.0430    0.0000 C   0  0  0  0  0  0  0  0  0
   -2.7824    1.8680    0.0000 C   0  0  0  0  0  0  0  0  0
   -2.0679    2.2805    0.0000 C   0  0  0  0  0  0  0  0  0
   -3.4969    0.6305    0.0000 C   0  0  0  0  0  0  0  0  0
   -4.2113    1.0430    0.0000 O   0  0  0  0  0  0  0  0  0
   -3.4969   -0.1945    0.0000 C   0  0  0  0  0  0  0  0  0
   -4.2113   -0.6070    0.0000 N   0  0  0  0  0  0  0  0  0
   -4.2976   -1.4275    0.0000 C   0  0  0  0  0  0  0  0  0
   -5.1045   -1.5990    0.0000 C   0  0  0  0  0  0  0  0  0
   -5.5170   -0.8846    0.0000 C   0  0  0  0  0  0  0  0  0
   -4.9650   -0.2715    0.0000 C   0  0  0  0  0  0  0  0  0
   -2.7824   -0.6070    0.0000 C   0  0  0  0  0  0  0  0  0
   -2.0679   -0.1945    0.0000 C   0  0  0  0  0  0  0  0  0
   -1.3535   -0.6070    0.0000 C   0  0  0  0  0  0  0  0  0
  1  2  1  0  0  0  0
  1  3  1  0  0  0  0
  3  4  4  0  0  0  0
  3  8  4  0  0  0  0
  4  5  4  0  0  0  0
  5  6  4  0  0  0  0
  6  7  4  0  0  0  0
  6  9  1  0  0  0  0
  7  8  4  0  0  0  0
  9 10  2  0  0  0  0
  9 11  1  0  0  0  0
 11 12  1  0  0  0  0
 11 17  1  0  0  0  0
 12 13  1  0  0  0  0
 12 16  1  0  0  0  0
 13 14  1  0  0  0  0
 14 15  1  0  0  0  0
 15 16  1  0  0  0  0
 17 18  1  0  0  0  0
 18 19  1  0  0  0  0
M  END
>  <Name_Molregno>
339502

>  <Dopamine transporter>
6.48

>  <Norepinephrine transporter>
5.59

>  <Serotonin transporter>
5.39

$$$$
339503
  Marvin  02231216192D 0   1.00000     0.00000     0

 19 20  0  0  1  0  0  0  0  0999 V2000
    5.0573    0.7761    0.0000 Cl  0  0  0  0  0  0  0  0  0
    4.3428    1.1886    0.0000 C   0  0  0  0  0  0  0  0  0
    3.6283    0.7761    0.0000 C   0  0  0  0  0  0  0  0  0
    2.9139    1.1886    0.0000 C   0  0  0  0  0  0  0  0  0
    2.9139    2.0136    0.0000 C   0  0  0  0  0  0  0  0  0
    3.6283    2.4261    0.0000 C   0  0  0  0  0  0  0  0  0
    4.3428    2.0136    0.0000 C   0  0  0  0  0  0  0  0  0
    5.0573    2.4261    0.0000 Cl  0  0  0  0  0  0  0  0  0
    2.1994    0.7761    0.0000 C   0  0  0  0  0  0  0  0  0
    1.4849    1.1886    0.0000 O   0  0  0  0  0  0  0  0  0
    2.1994   -0.0489    0.0000 C   0  0  0  0  0  0  0  0  0
    1.4849   -0.4614    0.0000 N   0  0  0  0  0  0  0  0  0
    1.3987   -1.2819    0.0000 C   0  0  0  0  0  0  0  0  0
    0.5917   -1.4534    0.0000 C   0  0  0  0  0  0  0  0  0
    0.1792   -0.7390    0.0000 C   0  0  0  0  0  0  0  0  0
    0.7312   -0.1259    0.0000 C   0  0  0  0  0  0  0  0  0
    2.9139   -0.4614    0.0000 C   0  0  0  0  0  0  0  0  0
    3.6283   -0.0489    0.0000 C   0  0  0  0  0  0  0  0  0
    4.3428   -0.4614    0.0000 C   0  0  0  0  0  0  0  0  0
  1  2  1  0  0  0  0
  2  3  4  0  0  0  0
  2  7  4  0  0  0  0
  3  4  4  0  0  0  0
  4  5  4  0  0  0  0
  4  9  1  0  0  0  0
  5  6  4  0  0  0  0
  6  7  4  0  0  0  0
  7  8  1  0  0  0  0
  9 10  2  0  0  0  0
  9 11  1  0  0  0  0
 11 12  1  0  0  0  0
 11 17  1  0  0  0  0
 12 13  1  0  0  0  0
 12 16  1  0  0  0  0
 13 14  1  0  0  0  0
 14 15  1  0  0  0  0
 15 16  1  0  0  0  0
 17 18  1  0  0  0  0
 18 19  1  0  0  0  0
M  END
>  <Name_Molregno>
339503

>  <Dopamine transporter>
7.94

>  <Norepinephrine transporter>
7.42

>  <Serotonin transporter>
6.7

$$$$
339511
  Marvin  02231216192D 0   1.00000     0.00000     0

 19 20  0  0  1  0  0  0  0  0999 V2000
    5.0573    0.7761    0.0000 O   0  0  0  0  0  0  0  0  0
    4.3428    1.1886    0.0000 C   0  0  0  0  0  0  0  0  0
    3.6283    0.7761    0.0000 C   0  0  0  0  0  0  0  0  0
    2.9139    1.1886    0.0000 C   0  0  0  0  0  0  0  0  0
    2.9139    2.0136    0.0000 C   0  0  0  0  0  0  0  0  0
    3.6283    2.4261    0.0000 C   0  0  0  0  0  0  0  0  0
    4.3428    2.0136    0.0000 C   0  0  0  0  0  0  0  0  0
    5.0573    2.4261    0.0000 O   0  0  0  0  0  0  0  0  0
    2.1994    0.7761    0.0000 C   0  0  0  0  0  0  0  0  0
    1.4849    1.1886    0.0000 O   0  0  0  0  0  0  0  0  0
    2.1994   -0.0489    0.0000 C   0  0  0  0  0  0  0  0  0
    1.4849   -0.4614    0.0000 N   0  0  0  0  0  0  0  0  0
    1.3987   -1.2819    0.0000 C   0  0  0  0  0  0  0  0  0
    0.5917   -1.4534    0.0000 C   0  0  0  0  0  0  0  0  0
    0.1792   -0.7390    0.0000 C   0  0  0  0  0  0  0  0  0
    0.7312   -0.1259    0.0000 C   0  0  0  0  0  0  0  0  0
    2.9139   -0.4614    0.0000 C   0  0  0  0  0  0  0  0  0
    3.6283   -0.0489    0.0000 C   0  0  0  0  0  0  0  0  0
    4.3428   -0.4614    0.0000 C   0  0  0  0  0  0  0  0  0
  1  2  1  0  0  0  0
  2  3  4  0  0  0  0
  2  7  4  0  0  0  0
  3  4  4  0  0  0  0
  4  5  4  0  0  0  0
  4  9  1  0  0  0  0
  5  6  4  0  0  0  0
  6  7  4  0  0  0  0
  7  8  1  0  0  0  0
  9 10  2  0  0  0  0
  9 11  1  0  0  0  0
 11 12  1  0  0  0  0
 11 17  1  0  0  0  0
 12 13  1  0  0  0  0
 12 16  1  0  0  0  0
 13 14  1  0  0  0  0
 14 15  1  0  0  0  0
 15 16  1  0  0  0  0
 17 18  1  0  0  0  0
 18 19  1  0  0  0  0
M  END
>  <Name_Molregno>
339511

>  <Dopamine transporter>
7.08

>  <Norepinephrine transporter>
6.66

>  <Serotonin transporter>
5

$$$$
339512
  Marvin  02231216192D 0   1.00000     0.00000     0

 21 22  0  0  1  0  0  0  0  0999 V2000
    3.9428    1.8220    0.0000 O   0  0  0  0  0  0  0  0  0
    4.6573    2.2345    0.0000 C   0  0  0  0  0  0  0  0  0
    3.2284    2.2345    0.0000 C   0  0  0  0  0  0  0  0  0
    2.5139    1.8220    0.0000 C   0  0  0  0  0  0  0  0  0
    1.7994    2.2345    0.0000 C   0  0  0  0  0  0  0  0  0
    1.7994    3.0595    0.0000 C   0  0  0  0  0  0  0  0  0
    2.5139    3.4720    0.0000 C   0  0  0  0  0  0  0  0  0
    3.2284    3.0595    0.0000 C   0  0  0  0  0  0  0  0  0
    3.9428    3.4720    0.0000 O   0  0  0  0  0  0  0  0  0
    3.9428    4.2970    0.0000 C   0  0  0  0  0  0  0  0  0
    1.0849    1.8220    0.0000 C   0  0  0  0  0  0  0  0  0
    0.3705    2.2345    0.0000 O   0  0  0  0  0  0  0  0  0
    1.0849    0.9970    0.0000 C   0  0  0  0  0  0  0  0  0
    0.3705    0.5845    0.0000 N   0  0  0  0  0  0  0  0  0
    0.2842   -0.2360    0.0000 C   0  0  0  0  0  0  0  0  0
   -0.5227   -0.4075    0.0000 C   0  0  0  0  0  0  0  0  0
   -0.9352    0.3070    0.0000 C   0  0  0  0  0  0  0  0  0
   -0.3832    0.9200    0.0000 C   0  0  0  0  0  0  0  0  0
    1.7994    0.5845    0.0000 C   0  0  0  0  0  0  0  0  0
    2.5139    0.9970    0.0000 C   0  0  0  0  0  0  0  0  0
    3.2284    0.5845    0.0000 C   0  0  0  0  0  0  0  0  0
  1  2  1  0  0  0  0
  1  3  1  0  0  0  0
  3  4  4  0  0  0  0
  3  8  4  0  0  0  0
  4  5  4  0  0  0  0
  5  6  4  0  0  0  0
  5 11  1  0  0  0  0
  6  7  4  0  0  0  0
  7  8  4  0  0  0  0
  8  9  1  0  0  0  0
  9 10  1  0  0  0  0
 11 12  2  0  0  0  0
 11 13  1  0  0  0  0
 13 14  1  0  0  0  0
 13 19  1  0  0  0  0
 14 15  1  0  0  0  0
 14 18  1  0  0  0  0
 15 16  1  0  0  0  0
 16 17  1  0  0  0  0
 17 18  1  0  0  0  0
 19 20  1  0  0  0  0
 20 21  1  0  0  0  0
M  END
>  <Name_Molregno>
339512

>  <Dopamine transporter>
5

>  <Norepinephrine transporter>
5

>  <Serotonin transporter>
5.13

$$$$
340274
  Marvin  02231216192D 0   1.00000     0.00000     0

 32 35  0  0  1  0  0  0  0  0999 V2000
   -2.7576   -1.9140    0.0000 O   0  0  0  0  0  0  0  0  0
   -2.0432   -2.3265    0.0000 C   0  0  0  0  0  0  0  0  0
   -2.0432   -3.1515    0.0000 C   0  0  0  0  0  0  0  0  0
   -1.3287   -3.5640    0.0000 C   0  0  0  0  0  0  0  0  0
   -1.3287   -4.3890    0.0000 C   0  0  0  0  0  0  0  0  0
   -2.0432   -4.8015    0.0000 C   0  0  0  0  0  0  0  0  0
   -2.7576   -4.3890    0.0000 C   0  0  0  0  0  0  0  0  0
   -2.7576   -3.5640    0.0000 C   0  0  0  0  0  0  0  0  0
   -1.3287   -1.9140    0.0000 C   0  0  0  0  0  0  0  0  0
   -1.3287   -1.0890    0.0000 C   0  0  0  0  0  0  0  0  0
   -0.6142   -0.6765    0.0000 C   0  0  0  0  0  0  0  0  0
    0.1002   -1.0890    0.0000 C   0  0  0  0  0  0  0  0  0
    0.1002   -1.9140    0.0000 C   0  0  0  0  0  0  0  0  0
   -0.6142   -2.3265    0.0000 C   0  0  0  0  0  0  0  0  0
   -2.7576   -1.0890    0.0000 C   0  0  0  0  0  0  0  0  0
   -3.4721   -0.6765    0.0000 C   0  0  0  0  0  0  0  0  0
   -3.4721    0.1485    0.0000 C   0  0  0  0  0  0  0  0  0
   -4.1866    0.5610    0.0000 C   0  0  0  0  0  0  0  0  0
   -4.1866    1.3860    0.0000 C   0  0  0  0  0  0  0  0  0
   -3.4721    1.7985    0.0000 N   0  0  0  0  0  0  0  0  0
   -2.7576    1.3860    0.0000 C   0  0  0  0  0  0  0  0  0
   -2.7576    0.5610    0.0000 C   0  0  0  0  0  0  0  0  0
   -3.4721    2.6235    0.0000 C   0  0  0  0  0  0  0  0  0
   -2.7576    3.0360    0.0000 C   0  0  0  0  0  0  0  0  0
   -2.7576    3.8610    0.0000 C   0  0  0  0  0  0  0  0  0
   -3.4721    4.2735    0.0000 O   0  0  0  0  0  0  0  0  0
   -2.0432    4.2735    0.0000 C   0  0  0  0  0  0  0  0  0
   -2.0432    5.0985    0.0000 C   0  0  0  0  0  0  0  0  0
   -1.3287    5.5110    0.0000 C   0  0  0  0  0  0  0  0  0
   -0.6142    5.0985    0.0000 C   0  0  0  0  0  0  0  0  0
   -0.6142    4.2735    0.0000 C   0  0  0  0  0  0  0  0  0
   -1.3287    3.8610    0.0000 C   0  0  0  0  0  0  0  0  0
  1  2  1  0  0  0  0
  1 15  1  0  0  0  0
  2  3  1  0  0  0  0
  2  9  1  0  0  0  0
  3  4  4  0  0  0  0
  3  8  4  0  0  0  0
  4  5  4  0  0  0  0
  5  6  4  0  0  0  0
  6  7  4  0  0  0  0
  7  8  4  0  0  0  0
  9 10  4  0  0  0  0
  9 14  4  0  0  0  0
 10 11  4  0  0  0  0
 11 12  4  0  0  0  0
 12 13  4  0  0  0  0
 13 14  4  0  0  0  0
 15 16  1  0  0  0  0
 16 17  1  0  0  0  0
 17 18  1  0  0  0  0
 17 22  1  0  0  0  0
 18 19  1  0  0  0  0
 19 20  1  0  0  0  0
 20 21  1  0  0  0  0
 20 23  1  0  0  0  0
 21 22  1  0  0  0  0
 23 24  1  0  0  0  0
 24 25  1  0  0  0  0
 25 26  1  0  0  0  0
 25 27  1  0  0  0  0
 27 28  4  0  0  0  0
 27 32  4  0  0  0  0
 28 29  4  0  0  0  0
 29 30  4  0  0  0  0
 30 31  4  0  0  0  0
 31 32  4  0  0  0  0
M  END
>  <Name_Molregno>
340274

>  <Dopamine transporter>
8.71

>  <Norepinephrine transporter>
5.96

>  <Serotonin transporter>
6.6

$$$$
340293
  Marvin  02231216192D 0   1.00000     0.00000     0

 34 37  0  0  1  0  0  0  0  0999 V2000
    4.7491    7.7903    0.0000 F   0  0  0  0  0  0  0  0  0
    4.7491    6.9653    0.0000 C   0  0  0  0  0  0  0  0  0
    5.4635    6.5528    0.0000 C   0  0  0  0  0  0  0  0  0
    5.4635    5.7278    0.0000 C   0  0  0  0  0  0  0  0  0
    4.7491    5.3153    0.0000 C   0  0  0  0  0  0  0  0  0
    4.0346    5.7278    0.0000 C   0  0  0  0  0  0  0  0  0
    4.0346    6.5528    0.0000 C   0  0  0  0  0  0  0  0  0
    4.7491    4.4903    0.0000 C   0  0  0  0  0  0  0  0  0
    5.4635    4.0778    0.0000 O   0  0  0  0  0  0  0  0  0
    5.4635    3.2528    0.0000 C   0  0  0  0  0  0  0  0  0
    6.1780    2.8403    0.0000 C   0  0  0  0  0  0  0  0  0
    6.1780    2.0153    0.0000 C   0  0  0  0  0  0  0  0  0
    6.8925    1.6028    0.0000 C   0  0  0  0  0  0  0  0  0
    6.8925    0.7778    0.0000 C   0  0  0  0  0  0  0  0  0
    6.1780    0.3653    0.0000 N   0  0  0  0  0  0  0  0  0
    5.4635    0.7778    0.0000 C   0  0  0  0  0  0  0  0  0
    5.4635    1.6028    0.0000 C   0  0  0  0  0  0  0  0  0
    6.1780   -0.4597    0.0000 C   0  0  0  0  0  0  0  0  0
    5.4635   -0.8722    0.0000 C   0  0  0  0  0  0  0  0  0
    5.4635   -1.6972    0.0000 C   0  0  0  0  0  0  0  0  0
    4.7491   -2.1097    0.0000 O   0  0  0  0  0  0  0  0  0
    6.1780   -2.1097    0.0000 C   0  0  0  0  0  0  0  0  0
    6.8925   -1.6972    0.0000 C   0  0  0  0  0  0  0  0  0
    7.6070   -2.1097    0.0000 C   0  0  0  0  0  0  0  0  0
    7.6070   -2.9347    0.0000 C   0  0  0  0  0  0  0  0  0
    6.8925   -3.3472    0.0000 C   0  0  0  0  0  0  0  0  0
    6.1780   -2.9347    0.0000 C   0  0  0  0  0  0  0  0  0
    4.0346    4.0778    0.0000 C   0  0  0  0  0  0  0  0  0
    4.0346    3.2528    0.0000 C   0  0  0  0  0  0  0  0  0
    3.3201    2.8403    0.0000 C   0  0  0  0  0  0  0  0  0
    2.6057    3.2528    0.0000 C   0  0  0  0  0  0  0  0  0
    1.8912    2.8403    0.0000 F   0  0  0  0  0  0  0  0  0
    2.6057    4.0778    0.0000 C   0  0  0  0  0  0  0  0  0
    3.3201    4.4903    0.0000 C   0  0  0  0  0  0  0  0  0
  1  2  1  0  0  0  0
  2  3  4  0  0  0  0
  2  7  4  0  0  0  0
  3  4  4  0  0  0  0
  4  5  4  0  0  0  0
  5  6  4  0  0  0  0
  5  8  1  0  0  0  0
  6  7  4  0  0  0  0
  8  9  1  0  0  0  0
  8 28  1  0  0  0  0
  9 10  1  0  0  0  0
 10 11  1  0  0  0  0
 11 12  1  0  0  0  0
 12 13  1  0  0  0  0
 12 17  1  0  0  0  0
 13 14  1  0  0  0  0
 14 15  1  0  0  0  0
 15 16  1  0  0  0  0
 15 18  1  0  0  0  0
 16 17  1  0  0  0  0
 18 19  1  0  0  0  0
 19 20  1  0  0  0  0
 20 21  1  0  0  0  0
 20 22  1  0  0  0  0
 22 23  4  0  0  0  0
 22 27  4  0  0  0  0
 23 24  4  0  0  0  0
 24 25  4  0  0  0  0
 25 26  4  0  0  0  0
 26 27  4  0  0  0  0
 28 29  4  0  0  0  0
 28 34  4  0  0  0  0
 29 30  4  0  0  0  0
 30 31  4  0  0  0  0
 31 32  1  0  0  0  0
 31 33  4  0  0  0  0
 33 34  4  0  0  0  0
M  END
>  <Name_Molregno>
340293

>  <Dopamine transporter>
9.08

>  <Norepinephrine transporter>
6.42

>  <Serotonin transporter>
7.51

$$$$
340437
  Marvin  02231216192D 0   1.00000     0.00000     0

 32 35  0  0  1  0  0  0  0  0999 V2000
   -2.7527   -2.4537    0.0000 O   0  0  0  0  0  0  0  0  0
   -2.0383   -2.8662    0.0000 C   0  0  0  0  0  0  0  0  0
   -2.0383   -3.6912    0.0000 C   0  0  0  0  0  0  0  0  0
   -1.3238   -4.1037    0.0000 C   0  0  0  0  0  0  0  0  0
   -1.3238   -4.9287    0.0000 C   0  0  0  0  0  0  0  0  0
   -2.0383   -5.3412    0.0000 C   0  0  0  0  0  0  0  0  0
   -2.7527   -4.9287    0.0000 C   0  0  0  0  0  0  0  0  0
   -2.7527   -4.1037    0.0000 C   0  0  0  0  0  0  0  0  0
   -1.3238   -2.4537    0.0000 C   0  0  0  0  0  0  0  0  0
   -1.3238   -1.6287    0.0000 C   0  0  0  0  0  0  0  0  0
   -0.6093   -1.2162    0.0000 C   0  0  0  0  0  0  0  0  0
    0.1052   -1.6287    0.0000 C   0  0  0  0  0  0  0  0  0
    0.1052   -2.4537    0.0000 C   0  0  0  0  0  0  0  0  0
   -0.6093   -2.8662    0.0000 C   0  0  0  0  0  0  0  0  0
   -2.7527   -1.6287    0.0000 C   0  0  0  0  0  0  0  0  0
   -3.4672   -1.2162    0.0000 C   0  0  0  0  0  0  0  0  0
   -3.4672   -0.3912    0.0000 C   0  0  0  0  0  0  0  0  0
   -4.1817    0.0213    0.0000 C   0  0  0  0  0  0  0  0  0
   -4.1817    0.8463    0.0000 C   0  0  0  0  0  0  0  0  0
   -3.4672    1.2588    0.0000 N   0  0  0  0  0  0  0  0  0
   -2.7527    0.8463    0.0000 C   0  0  0  0  0  0  0  0  0
   -2.7527    0.0213    0.0000 C   0  0  0  0  0  0  0  0  0
   -3.4672    2.0838    0.0000 C   0  0  0  0  0  0  0  0  0
   -2.7527    2.4963    0.0000 C   0  0  0  0  0  0  0  0  0
   -2.0383    2.0838    0.0000 O   0  0  0  0  0  0  0  0  0
   -2.7527    3.3213    0.0000 C   0  0  0  0  0  0  0  0  0
   -2.0383    3.7338    0.0000 C   0  0  0  0  0  0  0  0  0
   -2.0383    4.5588    0.0000 C   0  0  0  0  0  0  0  0  0
   -1.3238    4.9713    0.0000 C   0  0  0  0  0  0  0  0  0
   -0.6093    4.5588    0.0000 C   0  0  0  0  0  0  0  0  0
   -0.6093    3.7338    0.0000 C   0  0  0  0  0  0  0  0  0
   -1.3238    3.3213    0.0000 C   0  0  0  0  0  0  0  0  0
  1  2  1  0  0  0  0
  1 15  1  0  0  0  0
  2  3  1  0  0  0  0
  2  9  1  0  0  0  0
  3  4  4  0  0  0  0
  3  8  4  0  0  0  0
  4  5  4  0  0  0  0
  5  6  4  0  0  0  0
  6  7  4  0  0  0  0
  7  8  4  0  0  0  0
  9 10  4  0  0  0  0
  9 14  4  0  0  0  0
 10 11  4  0  0  0  0
 11 12  4  0  0  0  0
 12 13  4  0  0  0  0
 13 14  4  0  0  0  0
 15 16  1  0  0  0  0
 16 17  1  0  0  0  0
 17 18  1  0  0  0  0
 17 22  1  0  0  0  0
 18 19  1  0  0  0  0
 19 20  1  0  0  0  0
 20 21  1  0  0  0  0
 20 23  1  0  0  0  0
 21 22  1  0  0  0  0
 23 24  1  0  0  0  0
 24 25  1  0  0  0  0
 24 26  1  0  0  0  0
 26 27  1  0  0  0  0
 27 28  4  0  0  0  0
 27 32  4  0  0  0  0
 28 29  4  0  0  0  0
 29 30  4  0  0  0  0
 30 31  4  0  0  0  0
 31 32  4  0  0  0  0
M  END
>  <Name_Molregno>
340437

>  <Dopamine transporter>
8.51

>  <Norepinephrine transporter>
6.21

>  <Serotonin transporter>
6.44

$$$$
340444
  Marvin  02231216192D 0   1.00000     0.00000     0

 34 37  0  0  1  0  0  0  0  0999 V2000
    4.7228    3.6093    0.0000 F   0  0  0  0  0  0  0  0  0
    4.7228    2.7843    0.0000 C   0  0  0  0  0  0  0  0  0
    5.4373    2.3718    0.0000 C   0  0  0  0  0  0  0  0  0
    5.4373    1.5468    0.0000 C   0  0  0  0  0  0  0  0  0
    4.7228    1.1343    0.0000 C   0  0  0  0  0  0  0  0  0
    4.0083    1.5468    0.0000 C   0  0  0  0  0  0  0  0  0
    4.0083    2.3718    0.0000 C   0  0  0  0  0  0  0  0  0
    4.7228    0.3093    0.0000 C   0  0  0  0  0  0  0  0  0
    5.4373   -0.1032    0.0000 O   0  0  0  0  0  0  0  0  0
    5.4373   -0.9282    0.0000 C   0  0  0  0  0  0  0  0  0
    6.1517   -1.3407    0.0000 C   0  0  0  0  0  0  0  0  0
    6.1517   -2.1657    0.0000 C   0  0  0  0  0  0  0  0  0
    6.8662   -2.5782    0.0000 C   0  0  0  0  0  0  0  0  0
    6.8662   -3.4032    0.0000 C   0  0  0  0  0  0  0  0  0
    6.1517   -3.8157    0.0000 N   0  0  0  0  0  0  0  0  0
    5.4373   -3.4032    0.0000 C   0  0  0  0  0  0  0  0  0
    5.4373   -2.5782    0.0000 C   0  0  0  0  0  0  0  0  0
    6.1517   -4.6407    0.0000 C   0  0  0  0  0  0  0  0  0
    5.4373   -5.0532    0.0000 C   0  0  0  0  0  0  0  0  0
    4.7228   -4.6407    0.0000 O   0  0  0  0  0  0  0  0  0
    5.4373   -5.8782    0.0000 C   0  0  0  0  0  0  0  0  0
    6.1517   -6.2907    0.0000 C   0  0  0  0  0  0  0  0  0
    6.8662   -5.8782    0.0000 C   0  0  0  0  0  0  0  0  0
    7.5807   -6.2907    0.0000 C   0  0  0  0  0  0  0  0  0
    7.5807   -7.1157    0.0000 C   0  0  0  0  0  0  0  0  0
    6.8662   -7.5282    0.0000 C   0  0  0  0  0  0  0  0  0
    6.1517   -7.1157    0.0000 C   0  0  0  0  0  0  0  0  0
    4.0083   -0.1032    0.0000 C   0  0  0  0  0  0  0  0  0
    4.0083   -0.9282    0.0000 C   0  0  0  0  0  0  0  0  0
    3.2938   -1.3407    0.0000 C   0  0  0  0  0  0  0  0  0
    2.5794   -0.9282    0.0000 C   0  0  0  0  0  0  0  0  0
    1.8649   -1.3407    0.0000 F   0  0  0  0  0  0  0  0  0
    2.5794   -0.1032    0.0000 C   0  0  0  0  0  0  0  0  0
    3.2938    0.3093    0.0000 C   0  0  0  0  0  0  0  0  0
  1  2  1  0  0  0  0
  2  3  4  0  0  0  0
  2  7  4  0  0  0  0
  3  4  4  0  0  0  0
  4  5  4  0  0  0  0
  5  6  4  0  0  0  0
  5  8  1  0  0  0  0
  6  7  4  0  0  0  0
  8  9  1  0  0  0  0
  8 28  1  0  0  0  0
  9 10  1  0  0  0  0
 10 11  1  0  0  0  0
 11 12  1  0  0  0  0
 12 13  1  0  0  0  0
 12 17  1  0  0  0  0
 13 14  1  0  0  0  0
 14 15  1  0  0  0  0
 15 16  1  0  0  0  0
 15 18  1  0  0  0  0
 16 17  1  0  0  0  0
 18 19  1  0  0  0  0
 19 20  1  0  0  0  0
 19 21  1  0  0  0  0
 21 22  1  0  0  0  0
 22 23  4  0  0  0  0
 22 27  4  0  0  0  0
 23 24  4  0  0  0  0
 24 25  4  0  0  0  0
 25 26  4  0  0  0  0
 26 27  4  0  0  0  0
 28 29  4  0  0  0  0
 28 34  4  0  0  0  0
 29 30  4  0  0  0  0
 30 31  4  0  0  0  0
 31 32  1  0  0  0  0
 31 33  4  0  0  0  0
 33 34  4  0  0  0  0
M  END
>  <Name_Molregno>
340444

>  <Dopamine transporter>
8.82

>  <Norepinephrine transporter>
6.4

>  <Serotonin transporter>
7.17

$$$$
340552
  Marvin  02231216192D 0   1.00000     0.00000     0

 34 37  0  0  1  0  0  0  0  0999 V2000
    4.7491    7.7903    0.0000 F   0  0  0  0  0  0  0  0  0
    4.7491    6.9653    0.0000 C   0  0  0  0  0  0  0  0  0
    5.4635    6.5528    0.0000 C   0  0  0  0  0  0  0  0  0
    5.4635    5.7278    0.0000 C   0  0  0  0  0  0  0  0  0
    4.7491    5.3153    0.0000 C   0  0  0  0  0  0  0  0  0
    4.0346    5.7278    0.0000 C   0  0  0  0  0  0  0  0  0
    4.0346    6.5528    0.0000 C   0  0  0  0  0  0  0  0  0
    4.7491    4.4903    0.0000 C   0  0  0  0  0  0  0  0  0
    5.4635    4.0778    0.0000 O   0  0  0  0  0  0  0  0  0
    5.4635    3.2528    0.0000 C   0  0  0  0  0  0  0  0  0
    6.1780    2.8403    0.0000 C   0  0  0  0  0  0  0  0  0
    6.1780    2.0153    0.0000 C   0  0  0  0  0  0  0  0  0
    6.8925    1.6028    0.0000 C   0  0  0  0  0  0  0  0  0
    6.8925    0.7778    0.0000 C   0  0  0  0  0  0  0  0  0
    6.1780    0.3653    0.0000 N   0  0  0  0  0  0  0  0  0
    5.4635    0.7778    0.0000 C   0  0  0  0  0  0  0  0  0
    5.4635    1.6028    0.0000 C   0  0  0  0  0  0  0  0  0
    6.1780   -0.4597    0.0000 C   0  0  0  0  0  0  0  0  0
    5.4635   -0.8722    0.0000 C   0  0  0  0  0  0  0  0  0
    5.4635   -1.6972    0.0000 C   0  0  0  0  0  0  0  0  0
    4.7491   -2.1097    0.0000 C   0  0  0  0  0  0  0  0  0
    6.1780   -2.1097    0.0000 C   0  0  0  0  0  0  0  0  0
    6.8925   -1.6972    0.0000 C   0  0  0  0  0  0  0  0  0
    7.6070   -2.1097    0.0000 C   0  0  0  0  0  0  0  0  0
    7.6070   -2.9347    0.0000 C   0  0  0  0  0  0  0  0  0
    6.8925   -3.3472    0.0000 C   0  0  0  0  0  0  0  0  0
    6.1780   -2.9347    0.0000 C   0  0  0  0  0  0  0  0  0
    4.0346    4.0778    0.0000 C   0  0  0  0  0  0  0  0  0
    4.0346    3.2528    0.0000 C   0  0  0  0  0  0  0  0  0
    3.3201    2.8403    0.0000 C   0  0  0  0  0  0  0  0  0
    2.6057    3.2528    0.0000 C   0  0  0  0  0  0  0  0  0
    1.8912    2.8403    0.0000 F   0  0  0  0  0  0  0  0  0
    2.6057    4.0778    0.0000 C   0  0  0  0  0  0  0  0  0
    3.3201    4.4903    0.0000 C   0  0  0  0  0  0  0  0  0
  1  2  1  0  0  0  0
  2  3  4  0  0  0  0
  2  7  4  0  0  0  0
  3  4  4  0  0  0  0
  4  5  4  0  0  0  0
  5  6  4  0  0  0  0
  5  8  1  0  0  0  0
  6  7  4  0  0  0  0
  8  9  1  0  0  0  0
  8 28  1  0  0  0  0
  9 10  1  0  0  0  0
 10 11  1  0  0  0  0
 11 12  1  0  0  0  0
 12 13  1  0  0  0  0
 12 17  1  0  0  0  0
 13 14  1  0  0  0  0
 14 15  1  0  0  0  0
 15 16  1  0  0  0  0
 15 18  1  0  0  0  0
 16 17  1  0  0  0  0
 18 19  1  0  0  0  0
 19 20  1  0  0  0  0
 20 21  1  0  0  0  0
 20 22  1  0  0  0  0
 22 23  4  0  0  0  0
 22 27  4  0  0  0  0
 23 24  4  0  0  0  0
 24 25  4  0  0  0  0
 25 26  4  0  0  0  0
 26 27  4  0  0  0  0
 28 29  4  0  0  0  0
 28 34  4  0  0  0  0
 29 30  4  0  0  0  0
 30 31  4  0  0  0  0
 31 32  1  0  0  0  0
 31 33  4  0  0  0  0
 33 34  4  0  0  0  0
M  END
>  <Name_Molregno>
340552

>  <Dopamine transporter>
8.74

>  <Norepinephrine transporter>
6.71

>  <Serotonin transporter>
7.29

$$$$
340593
  Marvin  02231216192D 0   1.00000     0.00000     0

 35 39  0  0  0  0  0  0  0  0999 V2000
    4.2472    3.5767    0.0000 F   0  0  0  0  0  0  0  0  0
    4.2472    2.7517    0.0000 C   0  0  0  0  0  0  0  0  0
    4.9616    2.3392    0.0000 C   0  0  0  0  0  0  0  0  0
    4.9616    1.5142    0.0000 C   0  0  0  0  0  0  0  0  0
    4.2472    1.1017    0.0000 C   0  0  0  0  0  0  0  0  0
    3.5327    1.5142    0.0000 C   0  0  0  0  0  0  0  0  0
    3.5327    2.3392    0.0000 C   0  0  0  0  0  0  0  0  0
    4.2472    0.2767    0.0000 C   0  0  0  0  0  0  0  0  0
    4.9616   -0.1358    0.0000 O   0  0  0  0  0  0  0  0  0
    4.9616   -0.9608    0.0000 C   0  0  0  0  0  0  0  0  0
    5.6761   -1.3733    0.0000 C   0  0  0  0  0  0  0  0  0
    5.6761   -2.1983    0.0000 C   0  0  0  0  0  0  0  0  0
    6.3906   -2.6108    0.0000 C   0  0  0  0  0  0  0  0  0
    6.3906   -3.4358    0.0000 C   0  0  0  0  0  0  0  0  0
    5.6761   -3.8483    0.0000 N   0  0  0  0  0  0  0  0  0
    4.9616   -3.4358    0.0000 C   0  0  0  0  0  0  0  0  0
    4.9616   -2.6108    0.0000 C   0  0  0  0  0  0  0  0  0
    5.6761   -4.6733    0.0000 C   0  0  0  0  0  0  0  0  0
    6.3906   -5.0858    0.0000 C   0  0  0  0  0  0  0  0  0
    6.3906   -5.9108    0.0000 C   0  0  0  0  0  0  0  0  0
    7.1051   -6.3233    0.0000 C   0  0  0  0  0  0  0  0  0
    7.8195   -5.9108    0.0000 C   0  0  0  0  0  0  0  0  0
    7.8195   -5.0858    0.0000 C   0  0  0  0  0  0  0  0  0
    7.1051   -4.6733    0.0000 C   0  0  0  0  0  0  0  0  0
    8.5340   -4.6733    0.0000 C   0  0  0  0  0  0  0  0  0
    9.2485   -5.0858    0.0000 C   0  0  0  0  0  0  0  0  0
    9.2485   -5.9108    0.0000 C   0  0  0  0  0  0  0  0  0
    8.5340   -6.3233    0.0000 C   0  0  0  0  0  0  0  0  0
    3.5327   -0.1358    0.0000 C   0  0  0  0  0  0  0  0  0
    3.5327   -0.9608    0.0000 C   0  0  0  0  0  0  0  0  0
    2.8182   -1.3733    0.0000 C   0  0  0  0  0  0  0  0  0
    2.1038   -0.9608    0.0000 C   0  0  0  0  0  0  0  0  0
    1.3893   -1.3733    0.0000 F   0  0  0  0  0  0  0  0  0
    2.1038   -0.1358    0.0000 C   0  0  0  0  0  0  0  0  0
    2.8182    0.2767    0.0000 C   0  0  0  0  0  0  0  0  0
  1  2  1  0  0  0  0
  2  3  4  0  0  0  0
  2  7  4  0  0  0  0
  3  4  4  0  0  0  0
  4  5  4  0  0  0  0
  5  6  4  0  0  0  0
  5  8  1  0  0  0  0
  6  7  4  0  0  0  0
  8  9  1  0  0  0  0
  8 29  1  0  0  0  0
  9 10  1  0  0  0  0
 10 11  1  0  0  0  0
 11 12  1  0  0  0  0
 12 13  1  0  0  0  0
 12 17  1  0  0  0  0
 13 14  1  0  0  0  0
 14 15  1  0  0  0  0
 15 16  1  0  0  0  0
 15 18  1  0  0  0  0
 16 17  1  0  0  0  0
 18 19  1  0  0  0  0
 19 20  1  0  0  0  0
 19 24  2  0  0  0  0
 20 21  1  0  0  0  0
 21 22  1  0  0  0  0
 22 23  4  0  0  0  0
 22 28  4  0  0  0  0
 23 24  1  0  0  0  0
 23 25  4  0  0  0  0
 25 26  4  0  0  0  0
 26 27  4  0  0  0  0
 27 28  4  0  0  0  0
 29 30  4  0  0  0  0
 29 35  4  0  0  0  0
 30 31  4  0  0  0  0
 31 32  4  0  0  0  0
 32 33  1  0  0  0  0
 32 34  4  0  0  0  0
 34 35  4  0  0  0  0
M  END
>  <Name_Molregno>
340593

>  <Dopamine transporter>
8.96

>  <Norepinephrine transporter>
7.37

>  <Serotonin transporter>
6.9

$$$$
340601
  Marvin  02231216192D 0   1.00000     0.00000     0

 34 38  0  0  1  0  0  0  0  0999 V2000
    9.9005    5.6966    0.0000 F   0  0  0  0  0  0  0  0  0
    9.1860    5.2841    0.0000 C   0  0  0  0  0  0  0  0  0
    9.1860    4.4591    0.0000 C   0  0  0  0  0  0  0  0  0
    8.4715    4.0466    0.0000 C   0  0  0  0  0  0  0  0  0
    7.7570    4.4591    0.0000 C   0  0  0  0  0  0  0  0  0
    7.7570    5.2841    0.0000 C   0  0  0  0  0  0  0  0  0
    8.4715    5.6966    0.0000 C   0  0  0  0  0  0  0  0  0
    7.0426    4.0466    0.0000 C   0  0  0  0  0  0  0  0  0
    7.0426    3.2216    0.0000 O   0  0  0  0  0  0  0  0  0
    6.3281    2.8091    0.0000 C   0  0  0  0  0  0  0  0  0
    6.3281    1.9841    0.0000 C   0  0  0  0  0  0  0  0  0
    5.6136    1.5716    0.0000 C   0  0  0  0  0  0  0  0  0
    5.6136    0.7466    0.0000 C   0  0  0  0  0  0  0  0  0
    4.8992    0.3341    0.0000 C   0  0  0  0  0  0  0  0  0
    4.1847    0.7466    0.0000 N   0  0  0  0  0  0  0  0  0
    4.1847    1.5716    0.0000 C   0  0  0  0  0  0  0  0  0
    4.8992    1.9841    0.0000 C   0  0  0  0  0  0  0  0  0
    3.4702    0.3341    0.0000 C   0  0  0  0  0  0  0  0  0
    3.4702   -0.4909    0.0000 C   0  0  0  0  0  0  0  0  0
    3.8827   -1.2053    0.0000 C   0  0  0  0  0  0  0  0  0
    3.0577   -1.2053    0.0000 C   0  0  0  0  0  0  0  0  0
    2.3432   -1.6178    0.0000 C   0  0  0  0  0  0  0  0  0
    2.3432   -2.4428    0.0000 C   0  0  0  0  0  0  0  0  0
    1.6288   -2.8553    0.0000 C   0  0  0  0  0  0  0  0  0
    0.9143   -2.4428    0.0000 C   0  0  0  0  0  0  0  0  0
    0.9143   -1.6178    0.0000 C   0  0  0  0  0  0  0  0  0
    1.6288   -1.2053    0.0000 C   0  0  0  0  0  0  0  0  0
    6.3281    4.4591    0.0000 C   0  0  0  0  0  0  0  0  0
    5.6136    4.0466    0.0000 C   0  0  0  0  0  0  0  0  0
    4.8992    4.4591    0.0000 C   0  0  0  0  0  0  0  0  0
    4.8992    5.2841    0.0000 C   0  0  0  0  0  0  0  0  0
    4.1847    5.6966    0.0000 F   0  0  0  0  0  0  0  0  0
    5.6136    5.6966    0.0000 C   0  0  0  0  0  0  0  0  0
    6.3281    5.2841    0.0000 C   0  0  0  0  0  0  0  0  0
  1  2  1  0  0  0  0
  2  3  4  0  0  0  0
  2  7  4  0  0  0  0
  3  4  4  0  0  0  0
  4  5  4  0  0  0  0
  5  6  4  0  0  0  0
  5  8  1  0  0  0  0
  6  7  4  0  0  0  0
  8  9  1  0  0  0  0
  8 28  1  0  0  0  0
  9 10  1  0  0  0  0
 10 11  1  0  0  0  0
 11 12  1  0  0  0  0
 12 13  1  0  0  0  0
 12 17  1  0  0  0  0
 13 14  1  0  0  0  0
 14 15  1  0  0  0  0
 15 16  1  0  0  0  0
 15 18  1  0  0  0  0
 16 17  1  0  0  0  0
 18 19  1  0  0  0  0
 19 20  1  0  0  0  0
 19 21  1  0  0  0  0
 20 21  1  0  0  0  0
 21 22  1  0  0  0  0
 22 23  4  0  0  0  0
 22 27  4  0  0  0  0
 23 24  4  0  0  0  0
 24 25  4  0  0  0  0
 25 26  4  0  0  0  0
 26 27  4  0  0  0  0
 28 29  4  0  0  0  0
 28 34  4  0  0  0  0
 29 30  4  0  0  0  0
 30 31  4  0  0  0  0
 31 32  1  0  0  0  0
 31 33  4  0  0  0  0
 33 34  4  0  0  0  0
M  END
>  <Name_Molregno>
340601

>  <Dopamine transporter>
9.08

>  <Norepinephrine transporter>
6.23

>  <Serotonin transporter>
7.34

$$$$
340657
  Marvin  02231216192D 0   1.00000     0.00000     0

 34 37  0  0  1  0  0  0  0  0999 V2000
    4.7228    3.6093    0.0000 F   0  0  0  0  0  0  0  0  0
    4.7228    2.7843    0.0000 C   0  0  0  0  0  0  0  0  0
    5.4373    2.3718    0.0000 C   0  0  0  0  0  0  0  0  0
    5.4373    1.5468    0.0000 C   0  0  0  0  0  0  0  0  0
    4.7228    1.1343    0.0000 C   0  0  0  0  0  0  0  0  0
    4.0083    1.5468    0.0000 C   0  0  0  0  0  0  0  0  0
    4.0083    2.3718    0.0000 C   0  0  0  0  0  0  0  0  0
    4.7228    0.3093    0.0000 C   0  0  0  0  0  0  0  0  0
    5.4373   -0.1032    0.0000 O   0  0  0  0  0  0  0  0  0
    5.4373   -0.9282    0.0000 C   0  0  0  0  0  0  0  0  0
    6.1517   -1.3407    0.0000 C   0  0  0  0  0  0  0  0  0
    6.1517   -2.1657    0.0000 C   0  0  0  0  0  0  0  0  0
    6.8662   -2.5782    0.0000 C   0  0  0  0  0  0  0  0  0
    6.8662   -3.4032    0.0000 C   0  0  0  0  0  0  0  0  0
    6.1517   -3.8157    0.0000 N   0  0  0  0  0  0  0  0  0
    5.4373   -3.4032    0.0000 C   0  0  0  0  0  0  0  0  0
    5.4373   -2.5782    0.0000 C   0  0  0  0  0  0  0  0  0
    6.1517   -4.6407    0.0000 C   0  0  0  0  0  0  0  0  0
    5.4373   -5.0532    0.0000 C   0  0  0  0  0  0  0  0  0
    4.7228   -4.6407    0.0000 N   0  0  0  0  0  0  0  0  0
    5.4373   -5.8782    0.0000 C   0  0  0  0  0  0  0  0  0
    6.1517   -6.2907    0.0000 C   0  0  0  0  0  0  0  0  0
    6.8662   -5.8782    0.0000 C   0  0  0  0  0  0  0  0  0
    7.5807   -6.2907    0.0000 C   0  0  0  0  0  0  0  0  0
    7.5807   -7.1157    0.0000 C   0  0  0  0  0  0  0  0  0
    6.8662   -7.5282    0.0000 C   0  0  0  0  0  0  0  0  0
    6.1517   -7.1157    0.0000 C   0  0  0  0  0  0  0  0  0
    4.0083   -0.1032    0.0000 C   0  0  0  0  0  0  0  0  0
    4.0083   -0.9282    0.0000 C   0  0  0  0  0  0  0  0  0
    3.2938   -1.3407    0.0000 C   0  0  0  0  0  0  0  0  0
    2.5794   -0.9282    0.0000 C   0  0  0  0  0  0  0  0  0
    1.8649   -1.3407    0.0000 F   0  0  0  0  0  0  0  0  0
    2.5794   -0.1032    0.0000 C   0  0  0  0  0  0  0  0  0
    3.2938    0.3093    0.0000 C   0  0  0  0  0  0  0  0  0
  1  2  1  0  0  0  0
  2  3  4  0  0  0  0
  2  7  4  0  0  0  0
  3  4  4  0  0  0  0
  4  5  4  0  0  0  0
  5  6  4  0  0  0  0
  5  8  1  0  0  0  0
  6  7  4  0  0  0  0
  8  9  1  0  0  0  0
  8 28  1  0  0  0  0
  9 10  1  0  0  0  0
 10 11  1  0  0  0  0
 11 12  1  0  0  0  0
 12 13  1  0  0  0  0
 12 17  1  0  0  0  0
 13 14  1  0  0  0  0
 14 15  1  0  0  0  0
 15 16  1  0  0  0  0
 15 18  1  0  0  0  0
 16 17  1  0  0  0  0
 18 19  1  0  0  0  0
 19 20  1  0  0  0  0
 19 21  1  0  0  0  0
 21 22  1  0  0  0  0
 22 23  4  0  0  0  0
 22 27  4  0  0  0  0
 23 24  4  0  0  0  0
 24 25  4  0  0  0  0
 25 26  4  0  0  0  0
 26 27  4  0  0  0  0
 28 29  4  0  0  0  0
 28 34  4  0  0  0  0
 29 30  4  0  0  0  0
 30 31  4  0  0  0  0
 31 32  1  0  0  0  0
 31 33  4  0  0  0  0
 33 34  4  0  0  0  0
M  END
>  <Name_Molregno>
340657

>  <Dopamine transporter>
7.94

>  <Norepinephrine transporter>
6.24

>  <Serotonin transporter>
6.89

$$$$
340756
  Marvin  02231216192D 0   1.00000     0.00000     0

 35 38  0  0  1  0  0  0  0  0999 V2000
    4.6279    3.7515    0.0000 F   0  0  0  0  0  0  0  0  0
    4.6279    2.9265    0.0000 C   0  0  0  0  0  0  0  0  0
    5.3424    2.5140    0.0000 C   0  0  0  0  0  0  0  0  0
    5.3424    1.6890    0.0000 C   0  0  0  0  0  0  0  0  0
    4.6279    1.2765    0.0000 C   0  0  0  0  0  0  0  0  0
    3.9135    1.6890    0.0000 C   0  0  0  0  0  0  0  0  0
    3.9135    2.5140    0.0000 C   0  0  0  0  0  0  0  0  0
    4.6279    0.4515    0.0000 C   0  0  0  0  0  0  0  0  0
    5.3424    0.0390    0.0000 O   0  0  0  0  0  0  0  0  0
    5.3424   -0.7860    0.0000 C   0  0  0  0  0  0  0  0  0
    6.0569   -1.1985    0.0000 C   0  0  0  0  0  0  0  0  0
    6.0569   -2.0235    0.0000 C   0  0  0  0  0  0  0  0  0
    6.7713   -2.4360    0.0000 C   0  0  0  0  0  0  0  0  0
    6.7713   -3.2610    0.0000 C   0  0  0  0  0  0  0  0  0
    6.0569   -3.6735    0.0000 N   0  0  0  0  0  0  0  0  0
    5.3424   -3.2610    0.0000 C   0  0  0  0  0  0  0  0  0
    5.3424   -2.4360    0.0000 C   0  0  0  0  0  0  0  0  0
    6.0569   -4.4985    0.0000 C   0  0  0  0  0  0  0  0  0
    6.7713   -4.9110    0.0000 C   0  0  0  0  0  0  0  0  0
    7.4858   -4.4985    0.0000 O   0  0  0  0  0  0  0  0  0
    6.7713   -5.7360    0.0000 C   0  0  0  0  0  0  0  0  0
    7.4858   -6.1485    0.0000 C   0  0  0  0  0  0  0  0  0
    7.4858   -6.9735    0.0000 C   0  0  0  0  0  0  0  0  0
    8.2003   -7.3860    0.0000 C   0  0  0  0  0  0  0  0  0
    8.2003   -8.2110    0.0000 C   0  0  0  0  0  0  0  0  0
    7.4858   -8.6235    0.0000 C   0  0  0  0  0  0  0  0  0
    6.7713   -8.2110    0.0000 C   0  0  0  0  0  0  0  0  0
    6.7713   -7.3860    0.0000 C   0  0  0  0  0  0  0  0  0
    3.9135    0.0390    0.0000 C   0  0  0  0  0  0  0  0  0
    3.9135   -0.7860    0.0000 C   0  0  0  0  0  0  0  0  0
    3.1990   -1.1985    0.0000 C   0  0  0  0  0  0  0  0  0
    2.4845   -0.7860    0.0000 C   0  0  0  0  0  0  0  0  0
    1.7700   -1.1985    0.0000 F   0  0  0  0  0  0  0  0  0
    2.4845    0.0390    0.0000 C   0  0  0  0  0  0  0  0  0
    3.1990    0.4515    0.0000 C   0  0  0  0  0  0  0  0  0
  1  2  1  0  0  0  0
  2  3  4  0  0  0  0
  2  7  4  0  0  0  0
  3  4  4  0  0  0  0
  4  5  4  0  0  0  0
  5  6  4  0  0  0  0
  5  8  1  0  0  0  0
  6  7  4  0  0  0  0
  8  9  1  0  0  0  0
  8 29  1  0  0  0  0
  9 10  1  0  0  0  0
 10 11  1  0  0  0  0
 11 12  1  0  0  0  0
 12 13  1  0  0  0  0
 12 17  1  0  0  0  0
 13 14  1  0  0  0  0
 14 15  1  0  0  0  0
 15 16  1  0  0  0  0
 15 18  1  0  0  0  0
 16 17  1  0  0  0  0
 18 19  1  0  0  0  0
 19 20  1  0  0  0  0
 19 21  1  0  0  0  0
 21 22  1  0  0  0  0
 22 23  1  0  0  0  0
 23 24  4  0  0  0  0
 23 28  4  0  0  0  0
 24 25  4  0  0  0  0
 25 26  4  0  0  0  0
 26 27  4  0  0  0  0
 27 28  4  0  0  0  0
 29 30  4  0  0  0  0
 29 35  4  0  0  0  0
 30 31  4  0  0  0  0
 31 32  4  0  0  0  0
 32 33  1  0  0  0  0
 32 34  4  0  0  0  0
 34 35  4  0  0  0  0
M  END
>  <Name_Molregno>
340756

>  <Dopamine transporter>
8.78

>  <Norepinephrine transporter>
6.52

>  <Serotonin transporter>
7.68

$$$$
341010
  Marvin  02231216192D 0   1.00000     0.00000     0

 34 37  0  0  1  0  0  0  0  0999 V2000
    0.2480    2.0152    0.0000 F   0  0  0  0  0  0  0  0  0
    0.2480    1.1902    0.0000 C   0  0  0  0  0  0  0  0  0
    0.9624    0.7777    0.0000 C   0  0  0  0  0  0  0  0  0
    0.9624   -0.0473    0.0000 C   0  0  0  0  0  0  0  0  0
    0.2480   -0.4598    0.0000 C   0  0  0  0  0  0  0  0  0
   -0.4665   -0.0473    0.0000 C   0  0  0  0  0  0  0  0  0
   -0.4665    0.7777    0.0000 C   0  0  0  0  0  0  0  0  0
    0.2480   -1.2848    0.0000 C   0  0  0  0  0  0  0  0  0
    0.9624   -1.6973    0.0000 O   0  0  0  0  0  0  0  0  0
    0.9624   -2.5223    0.0000 C   0  0  0  0  0  0  0  0  0
    1.6769   -2.9348    0.0000 C   0  0  0  0  0  0  0  0  0
    1.6769   -3.7598    0.0000 C   0  0  0  0  0  0  0  0  0
    2.3914   -4.1723    0.0000 C   0  0  0  0  0  0  0  0  0
    2.3914   -4.9973    0.0000 C   0  0  0  0  0  0  0  0  0
    1.6769   -5.4098    0.0000 N   0  0  0  0  0  0  0  0  0
    0.9624   -4.9973    0.0000 C   0  0  0  0  0  0  0  0  0
    0.9624   -4.1723    0.0000 C   0  0  0  0  0  0  0  0  0
    1.6769   -6.2348    0.0000 C   0  0  0  0  0  0  0  0  0
    0.9624   -6.6473    0.0000 C   0  0  0  0  0  0  0  0  0
    0.9624   -7.4723    0.0000 C   0  0  0  0  0  0  0  0  0
    1.6769   -7.8848    0.0000 C   0  0  0  0  0  0  0  0  0
    2.3914   -7.4723    0.0000 C   0  0  0  0  0  0  0  0  0
    3.1059   -7.8848    0.0000 C   0  0  0  0  0  0  0  0  0
    3.1059   -8.7098    0.0000 C   0  0  0  0  0  0  0  0  0
    2.3914   -9.1223    0.0000 C   0  0  0  0  0  0  0  0  0
    1.6769   -8.7098    0.0000 C   0  0  0  0  0  0  0  0  0
    0.2480   -6.2348    0.0000 C   0  0  0  0  0  0  0  0  0
   -0.4665   -1.6973    0.0000 C   0  0  0  0  0  0  0  0  0
   -0.4665   -2.5223    0.0000 C   0  0  0  0  0  0  0  0  0
   -1.1810   -2.9348    0.0000 C   0  0  0  0  0  0  0  0  0
   -1.8954   -2.5223    0.0000 C   0  0  0  0  0  0  0  0  0
   -2.6099   -2.9348    0.0000 F   0  0  0  0  0  0  0  0  0
   -1.8954   -1.6973    0.0000 C   0  0  0  0  0  0  0  0  0
   -1.1810   -1.2848    0.0000 C   0  0  0  0  0  0  0  0  0
  1  2  1  0  0  0  0
  2  3  4  0  0  0  0
  2  7  4  0  0  0  0
  3  4  4  0  0  0  0
  4  5  4  0  0  0  0
  5  6  4  0  0  0  0
  5  8  1  0  0  0  0
  6  7  4  0  0  0  0
  8  9  1  0  0  0  0
  8 28  1  0  0  0  0
  9 10  1  0  0  0  0
 10 11  1  0  0  0  0
 11 12  1  0  0  0  0
 12 13  1  0  0  0  0
 12 17  1  0  0  0  0
 13 14  1  0  0  0  0
 14 15  1  0  0  0  0
 15 16  1  0  0  0  0
 15 18  1  0  0  0  0
 16 17  1  0  0  0  0
 18 19  1  0  0  0  0
 19 20  1  0  0  0  0
 19 27  1  0  0  0  0
 20 21  1  0  0  0  0
 21 22  4  0  0  0  0
 21 26  4  0  0  0  0
 22 23  4  0  0  0  0
 23 24  4  0  0  0  0
 24 25  4  0  0  0  0
 25 26  4  0  0  0  0
 28 29  4  0  0  0  0
 28 34  4  0  0  0  0
 29 30  4  0  0  0  0
 30 31  4  0  0  0  0
 31 32  1  0  0  0  0
 31 33  4  0  0  0  0
 33 34  4  0  0  0  0
M  END
>  <Name_Molregno>
341010

>  <Dopamine transporter>
8.52

>  <Norepinephrine transporter>
6.74

>  <Serotonin transporter>
7.06

$$$$
342514
  Marvin  02231216192D 0   1.00000     0.00000     0

 20 23  0  0  1  0  0  0  0  0999 V2000
   -3.9747   -0.6378    0.0000 O   0  0  0  0  0  0  0  0  0
   -4.5268   -1.2508    0.0000 C   0  0  0  0  0  0  0  0  0
   -5.3338   -1.0793    0.0000 C   0  0  0  0  0  0  0  0  0
   -6.1184   -1.3343    0.0000 C   0  0  0  0  0  0  0  0  0
   -5.9468   -0.5273    0.0000 C   0  0  0  0  0  0  0  0  0
   -3.1678   -0.8093    0.0000 C   0  0  0  0  0  0  0  0  0
   -2.6157   -0.1962    0.0000 C   0  0  0  0  0  0  0  0  0
   -1.8088   -0.3677    0.0000 N   0  0  0  0  0  0  0  0  0
   -1.2567    0.2454    0.0000 C   0  0  0  0  0  0  0  0  0
   -0.4317    0.2454    0.0000 N   0  0  0  0  0  0  0  0  0
   -0.1768    1.0300    0.0000 C   0  0  0  0  0  0  0  0  0
   -0.8442    1.5149    0.0000 C   0  0  0  0  0  0  0  0  0
   -1.5117    1.0300    0.0000 C   0  0  0  0  0  0  0  0  0
   -2.3187    1.2015    0.0000 C   0  0  0  0  0  0  0  0  0
   -2.8707    0.5884    0.0000 C   0  0  0  0  0  0  0  0  0
    0.6302    1.2015    0.0000 C   0  0  0  0  0  0  0  0  0
    1.1822    0.5884    0.0000 N   0  0  0  0  0  0  0  0  0
    0.9273   -0.1962    0.0000 C   0  0  0  0  0  0  0  0  0
    0.1203   -0.3677    0.0000 C   0  0  0  0  0  0  0  0  0
   -0.1346   -1.1523    0.0000 C   0  0  0  0  0  0  0  0  0
  1  2  1  0  0  0  0
  1  6  1  0  0  0  0
  2  3  1  0  0  0  0
  3  4  1  0  0  0  0
  3  5  1  0  0  0  0
  4  5  1  0  0  0  0
  6  7  1  0  0  0  0
  7  8  4  0  0  0  0
  7 15  4  0  0  0  0
  8  9  4  0  0  0  0
  9 10  1  0  0  0  0
  9 13  4  0  0  0  0
 10 11  1  0  0  0  0
 10 19  1  0  0  0  0
 11 12  1  0  0  0  0
 11 16  1  0  0  0  0
 12 13  1  0  0  0  0
 13 14  4  0  0  0  0
 14 15  4  0  0  0  0
 16 17  1  0  0  0  0
 17 18  1  0  0  0  0
 18 19  1  0  0  0  0
 19 20  1  0  0  0  0
M  END
>  <Name_Molregno>
342514

>  <5-HT1A>
6.14

>  <5-HT1B>
6.14

>  <5-HT1D>
6.44

>  <5-HT2A>
7.13

>  <5-HT2C>
8.44

>  <5-HT3>
6

>  <5-HT5>
6.14

>  <5-HT6>
6.14

>  <5-HT7>
6

>  <Beta-1>
6

>  <DOPAMINE D4>
6.14

>  <Dopamine transporter>
6

>  <Norepinephrine transporter>
6

>  <Serotonin transporter>
6

$$$$
344170
  Marvin  02231216192D 0   1.00000     0.00000     0

 23 25  0  0  1  0  0  0  0  0999 V2000
    0.3486   -2.4890    0.0000 O   0  0  0  0  0  0  0  0  0
    0.3486   -3.3140    0.0000 C   0  0  0  0  0  0  0  0  0
   -0.3658   -3.7265    0.0000 C   0  0  0  0  0  0  0  0  0
   -1.0803   -3.3140    0.0000 N   0  0  0  0  0  0  0  0  0
   -1.0803   -2.4890    0.0000 C   0  0  0  0  0  0  0  0  0
   -0.3658   -2.0765    0.0000 C   0  0  0  0  0  0  0  0  0
   -0.3658   -1.2515    0.0000 C   0  0  0  0  0  0  0  0  0
    0.4592   -1.2515    0.0000 O   0  0  0  0  0  0  0  0  0
   -0.3658   -0.4265    0.0000 C   0  0  0  0  0  0  0  0  0
    0.3486   -0.0140    0.0000 C   0  0  0  0  0  0  0  0  0
    0.3486    0.8110    0.0000 C   0  0  0  0  0  0  0  0  0
    1.0631    1.2235    0.0000 C   0  0  0  0  0  0  0  0  0
    1.7776    0.8110    0.0000 C   0  0  0  0  0  0  0  0  0
    1.7776   -0.0140    0.0000 C   0  0  0  0  0  0  0  0  0
    1.0631   -0.4265    0.0000 C   0  0  0  0  0  0  0  0  0
    1.0631   -1.2515    0.0000 O   0  0  0  0  0  0  0  0  0
    1.7776   -1.6640    0.0000 C   0  0  0  0  0  0  0  0  0
   -1.1908   -1.2515    0.0000 C   0  0  0  0  0  0  0  0  0
   -1.6033   -1.9659    0.0000 C   0  0  0  0  0  0  0  0  0
   -2.4283   -1.9659    0.0000 C   0  0  0  0  0  0  0  0  0
   -2.8408   -1.2515    0.0000 C   0  0  0  0  0  0  0  0  0
   -2.4283   -0.5370    0.0000 C   0  0  0  0  0  0  0  0  0
   -1.6033   -0.5370    0.0000 C   0  0  0  0  0  0  0  0  0
  1  2  1  0  0  0  0
  1  6  1  0  0  0  0
  2  3  1  0  0  0  0
  3  4  1  0  0  0  0
  4  5  1  0  0  0  0
  5  6  1  0  0  0  0
  6  7  1  0  0  0  0
  7  8  1  0  0  0  0
  7  9  1  0  0  0  0
  7 18  1  0  0  0  0
  9 10  1  0  0  0  0
 10 11  4  0  0  0  0
 10 15  4  0  0  0  0
 11 12  4  0  0  0  0
 12 13  4  0  0  0  0
 13 14  4  0  0  0  0
 14 15  4  0  0  0  0
 15 16  1  0  0  0  0
 16 17  1  0  0  0  0
 18 19  4  0  0  0  0
 18 23  4  0  0  0  0
 19 20  4  0  0  0  0
 20 21  4  0  0  0  0
 21 22  4  0  0  0  0
 22 23  4  0  0  0  0
M  END
>  <Name_Molregno>
344170

>  <Norepinephrine transporter>
7.33

$$$$
344371
  Marvin  02231216192D 0   1.00000     0.00000     0

 27 29  0  0  0  0  0  0  0  0999 V2000
   -8.3424    3.5017    0.0000 O   0  0  0  0  0  0  0  0  0
   -9.0569    3.9142    0.0000 C   0  0  0  0  0  0  0  0  0
   -8.3424    2.6767    0.0000 C   0  0  0  0  0  0  0  0  0
   -7.6279    2.2642    0.0000 C   0  0  0  0  0  0  0  0  0
   -7.6279    1.4392    0.0000 C   0  0  0  0  0  0  0  0  0
   -6.9134    1.0267    0.0000 N   0  0  0  0  0  0  0  0  0
   -6.1990    1.4392    0.0000 C   0  0  0  0  0  0  0  0  0
   -5.4845    1.0267    0.0000 C   0  0  0  0  0  0  0  0  0
   -5.4845    0.2017    0.0000 N   0  0  0  0  0  0  0  0  0
   -6.1990   -0.2108    0.0000 C   0  0  0  0  0  0  0  0  0
   -6.9134    0.2017    0.0000 C   0  0  0  0  0  0  0  0  0
   -4.7700   -0.2108    0.0000 C   0  0  0  0  0  0  0  0  0
   -4.0556    0.2017    0.0000 C   0  0  0  0  0  0  0  0  0
   -3.3411   -0.2108    0.0000 C   0  0  0  0  0  0  0  0  0
   -2.6266    0.2017    0.0000 C   0  0  0  0  0  0  0  0  0
   -1.9121   -0.2108    0.0000 N   0  0  0  0  0  0  0  0  0
   -1.1977    0.2017    0.0000 N   0  0  0  0  0  0  0  0  0
   -0.4832   -0.2108    0.0000 C   0  0  0  0  0  0  0  0  0
   -0.4832   -1.0358    0.0000 C   0  0  0  0  0  0  0  0  0
    0.2313   -1.4483    0.0000 O   0  0  0  0  0  0  0  0  0
   -1.1977   -1.4483    0.0000 N   0  0  0  0  0  0  0  0  0
   -1.1977   -2.2733    0.0000 C   0  0  0  0  0  0  0  0  0
   -1.9121   -1.0358    0.0000 C   0  0  0  0  0  0  0  0  0
   -2.6266   -1.4483    0.0000 O   0  0  0  0  0  0  0  0  0
   -8.3424    1.0267    0.0000 C   0  0  0  0  0  0  0  0  0
   -9.0569    1.4392    0.0000 C   0  0  0  0  0  0  0  0  0
   -9.0569    2.2642    0.0000 C   0  0  0  0  0  0  0  0  0
  1  2  1  0  0  0  0
  1  3  1  0  0  0  0
  3  4  4  0  0  0  0
  3 27  4  0  0  0  0
  4  5  4  0  0  0  0
  5  6  1  0  0  0  0
  5 25  4  0  0  0  0
  6  7  1  0  0  0  0
  6 11  1  0  0  0  0
  7  8  1  0  0  0  0
  8  9  1  0  0  0  0
  9 10  1  0  0  0  0
  9 12  1  0  0  0  0
 10 11  1  0  0  0  0
 12 13  1  0  0  0  0
 13 14  1  0  0  0  0
 14 15  1  0  0  0  0
 15 16  1  0  0  0  0
 16 17  1  0  0  0  0
 16 23  1  0  0  0  0
 17 18  2  0  0  0  0
 18 19  1  0  0  0  0
 19 20  2  0  0  0  0
 19 21  1  0  0  0  0
 21 22  1  0  0  0  0
 21 23  1  0  0  0  0
 23 24  2  0  0  0  0
 25 26  4  0  0  0  0
 26 27  4  0  0  0  0
M  END
>  <Name_Molregno>
344371

>  <5-HT1A>
8.96

>  <5-HT1B>
6.64

>  <5-HT1E>
5

>  <5-HT2A>
5.68

>  <5-HT3>
5

>  <5-HT5>
5

>  <5-HT6>
5

>  <5-HT7>
6.48

>  <Alpha-1A>
6.38

>  <Alpha-1B>
6.42

>  <Alpha-2A>
6.6

>  <Alpha-2C>
6.96

>  <DOPAMINE D2>
5.59

>  <DOPAMINE D3>
5

>  <DOPAMINE D4>
5

>  <DOPAMINE D5>
5

>  <Dopamine transporter>
5

>  <HISTAMINE H1>
6.08

>  <HISTAMINE H2>
5.67

>  <HISTAMINE H3>
5

>  <HISTAMINE H4>
5

>  <Norepinephrine transporter>
5

>  <Serotonin transporter>
5

$$$$
344525
  Marvin  02231216192D 0   1.00000     0.00000     0

 21 23  0  0  1  0  0  0  0  0999 V2000
    0.7188   -2.6294    0.0000 O   0  0  0  0  0  0  0  0  0
    0.7188   -3.4544    0.0000 C   0  0  0  0  0  0  0  0  0
    0.0043   -3.8669    0.0000 C   0  0  0  0  0  0  0  0  0
   -0.7101   -3.4544    0.0000 N   0  0  0  0  0  0  0  0  0
   -0.7101   -2.6294    0.0000 C   0  0  0  0  0  0  0  0  0
    0.0043   -2.2169    0.0000 C   0  0  0  0  0  0  0  0  0
    0.0043   -1.3919    0.0000 C   0  0  0  0  0  0  0  0  0
    0.8293   -1.3919    0.0000 O   0  0  0  0  0  0  0  0  0
    0.0043   -0.5669    0.0000 C   0  0  0  0  0  0  0  0  0
    0.7188   -0.1544    0.0000 C   0  0  0  0  0  0  0  0  0
    0.7188    0.6706    0.0000 C   0  0  0  0  0  0  0  0  0
    1.4333    1.0831    0.0000 C   0  0  0  0  0  0  0  0  0
    2.1477    0.6706    0.0000 C   0  0  0  0  0  0  0  0  0
    2.1477   -0.1544    0.0000 C   0  0  0  0  0  0  0  0  0
    1.4333   -0.5669    0.0000 C   0  0  0  0  0  0  0  0  0
   -0.8207   -1.3919    0.0000 C   0  0  0  0  0  0  0  0  0
   -1.2332   -2.1064    0.0000 C   0  0  0  0  0  0  0  0  0
   -2.0582   -2.1064    0.0000 C   0  0  0  0  0  0  0  0  0
   -2.4707   -1.3919    0.0000 C   0  0  0  0  0  0  0  0  0
   -2.0582   -0.6774    0.0000 C   0  0  0  0  0  0  0  0  0
   -1.2332   -0.6774    0.0000 C   0  0  0  0  0  0  0  0  0
  1  2  1  0  0  0  0
  1  6  1  0  0  0  0
  2  3  1  0  0  0  0
  3  4  1  0  0  0  0
  4  5  1  0  0  0  0
  5  6  1  0  0  0  0
  6  7  1  0  0  0  0
  7  8  1  0  0  0  0
  7  9  1  0  0  0  0
  7 16  1  0  0  0  0
  9 10  1  0  0  0  0
 10 11  4  0  0  0  0
 10 15  4  0  0  0  0
 11 12  4  0  0  0  0
 12 13  4  0  0  0  0
 13 14  4  0  0  0  0
 14 15  4  0  0  0  0
 16 17  4  0  0  0  0
 16 21  4  0  0  0  0
 17 18  4  0  0  0  0
 18 19  4  0  0  0  0
 19 20  4  0  0  0  0
 20 21  4  0  0  0  0
M  END
>  <Name_Molregno>
344525

>  <Norepinephrine transporter>
6.83

$$$$
344526
  Marvin  02231216192D 0   1.00000     0.00000     0

 22 24  0  0  1  0  0  0  0  0999 V2000
    2.5533   -1.9038    0.0000 Cl  0  0  0  0  0  0  0  0  0
    2.5533   -2.7288    0.0000 C   0  0  0  0  0  0  0  0  0
    3.2678   -3.1413    0.0000 C   0  0  0  0  0  0  0  0  0
    3.2678   -3.9663    0.0000 C   0  0  0  0  0  0  0  0  0
    2.5533   -4.3788    0.0000 C   0  0  0  0  0  0  0  0  0
    1.8388   -3.9663    0.0000 C   0  0  0  0  0  0  0  0  0
    1.8388   -3.1413    0.0000 C   0  0  0  0  0  0  0  0  0
    1.1244   -2.7288    0.0000 C   0  0  0  0  0  0  0  0  0
    1.1244   -1.9038    0.0000 C   0  0  0  0  0  0  0  0  0
    1.9494   -1.9038    0.0000 O   0  0  0  0  0  0  0  0  0
    1.1244   -1.0788    0.0000 C   0  0  0  0  0  0  0  0  0
    0.4099   -0.6663    0.0000 O   0  0  0  0  0  0  0  0  0
    0.4099    0.1587    0.0000 C   0  0  0  0  0  0  0  0  0
    1.1244    0.5712    0.0000 C   0  0  0  0  0  0  0  0  0
    1.8388    0.1587    0.0000 N   0  0  0  0  0  0  0  0  0
    1.8388   -0.6663    0.0000 C   0  0  0  0  0  0  0  0  0
    0.2994   -1.9038    0.0000 C   0  0  0  0  0  0  0  0  0
   -0.1131   -2.6183    0.0000 C   0  0  0  0  0  0  0  0  0
   -0.9381   -2.6183    0.0000 C   0  0  0  0  0  0  0  0  0
   -1.3506   -1.9038    0.0000 C   0  0  0  0  0  0  0  0  0
   -0.9381   -1.1893    0.0000 C   0  0  0  0  0  0  0  0  0
   -0.1131   -1.1893    0.0000 C   0  0  0  0  0  0  0  0  0
  1  2  1  0  0  0  0
  2  3  4  0  0  0  0
  2  7  4  0  0  0  0
  3  4  4  0  0  0  0
  4  5  4  0  0  0  0
  5  6  4  0  0  0  0
  6  7  4  0  0  0  0
  7  8  1  0  0  0  0
  8  9  1  0  0  0  0
  9 10  1  0  0  0  0
  9 11  1  0  0  0  0
  9 17  1  0  0  0  0
 11 12  1  0  0  0  0
 11 16  1  0  0  0  0
 12 13  1  0  0  0  0
 13 14  1  0  0  0  0
 14 15  1  0  0  0  0
 15 16  1  0  0  0  0
 17 18  4  0  0  0  0
 17 22  4  0  0  0  0
 18 19  4  0  0  0  0
 19 20  4  0  0  0  0
 20 21  4  0  0  0  0
 21 22  4  0  0  0  0
M  END
>  <Name_Molregno>
344526

>  <Norepinephrine transporter>
7.52

$$$$
344527
  Marvin  02231216192D 0   1.00000     0.00000     0

 22 24  0  0  1  0  0  0  0  0999 V2000
    2.5533   -1.9038    0.0000 Br  0  0  0  0  0  0  0  0  0
    2.5533   -2.7288    0.0000 C   0  0  0  0  0  0  0  0  0
    3.2678   -3.1413    0.0000 C   0  0  0  0  0  0  0  0  0
    3.2678   -3.9663    0.0000 C   0  0  0  0  0  0  0  0  0
    2.5533   -4.3788    0.0000 C   0  0  0  0  0  0  0  0  0
    1.8388   -3.9663    0.0000 C   0  0  0  0  0  0  0  0  0
    1.8388   -3.1413    0.0000 C   0  0  0  0  0  0  0  0  0
    1.1244   -2.7288    0.0000 C   0  0  0  0  0  0  0  0  0
    1.1244   -1.9038    0.0000 C   0  0  0  0  0  0  0  0  0
    1.9494   -1.9038    0.0000 O   0  0  0  0  0  0  0  0  0
    1.1244   -1.0788    0.0000 C   0  0  0  0  0  0  0  0  0
    0.4099   -0.6663    0.0000 O   0  0  0  0  0  0  0  0  0
    0.4099    0.1587    0.0000 C   0  0  0  0  0  0  0  0  0
    1.1244    0.5712    0.0000 C   0  0  0  0  0  0  0  0  0
    1.8388    0.1587    0.0000 N   0  0  0  0  0  0  0  0  0
    1.8388   -0.6663    0.0000 C   0  0  0  0  0  0  0  0  0
    0.2994   -1.9038    0.0000 C   0  0  0  0  0  0  0  0  0
   -0.1131   -2.6183    0.0000 C   0  0  0  0  0  0  0  0  0
   -0.9381   -2.6183    0.0000 C   0  0  0  0  0  0  0  0  0
   -1.3506   -1.9038    0.0000 C   0  0  0  0  0  0  0  0  0
   -0.9381   -1.1893    0.0000 C   0  0  0  0  0  0  0  0  0
   -0.1131   -1.1893    0.0000 C   0  0  0  0  0  0  0  0  0
  1  2  1  0  0  0  0
  2  3  4  0  0  0  0
  2  7  4  0  0  0  0
  3  4  4  0  0  0  0
  4  5  4  0  0  0  0
  5  6  4  0  0  0  0
  6  7  4  0  0  0  0
  7  8  1  0  0  0  0
  8  9  1  0  0  0  0
  9 10  1  0  0  0  0
  9 11  1  0  0  0  0
  9 17  1  0  0  0  0
 11 12  1  0  0  0  0
 11 16  1  0  0  0  0
 12 13  1  0  0  0  0
 13 14  1  0  0  0  0
 14 15  1  0  0  0  0
 15 16  1  0  0  0  0
 17 18  4  0  0  0  0
 17 22  4  0  0  0  0
 18 19  4  0  0  0  0
 19 20  4  0  0  0  0
 20 21  4  0  0  0  0
 21 22  4  0  0  0  0
M  END
>  <Name_Molregno>
344527

>  <Norepinephrine transporter>
7.92

$$$$
344535
  Marvin  02231216192D 0   1.00000     0.00000     0

 24 26  0  0  1  0  0  0  0  0999 V2000
    0.5805   -2.7275    0.0000 O   0  0  0  0  0  0  0  0  0
    0.5805   -3.5525    0.0000 C   0  0  0  0  0  0  0  0  0
   -0.1340   -3.9650    0.0000 C   0  0  0  0  0  0  0  0  0
   -0.8485   -3.5525    0.0000 N   0  0  0  0  0  0  0  0  0
   -0.8485   -2.7275    0.0000 C   0  0  0  0  0  0  0  0  0
   -0.1340   -2.3150    0.0000 C   0  0  0  0  0  0  0  0  0
   -0.1340   -1.4900    0.0000 C   0  0  0  0  0  0  0  0  0
    0.6910   -1.4900    0.0000 O   0  0  0  0  0  0  0  0  0
   -0.1340   -0.6650    0.0000 C   0  0  0  0  0  0  0  0  0
    0.5805   -0.2525    0.0000 C   0  0  0  0  0  0  0  0  0
    1.2949   -0.6650    0.0000 C   0  0  0  0  0  0  0  0  0
    2.0094   -0.2525    0.0000 C   0  0  0  0  0  0  0  0  0
    2.0094    0.5725    0.0000 C   0  0  0  0  0  0  0  0  0
    1.2949    0.9850    0.0000 C   0  0  0  0  0  0  0  0  0
    0.5805    0.5725    0.0000 C   0  0  0  0  0  0  0  0  0
   -0.1340    0.9850    0.0000 O   0  0  0  0  0  0  0  0  0
   -0.8485    0.5725    0.0000 C   0  0  0  0  0  0  0  0  0
   -1.5630    0.9850    0.0000 C   0  0  0  0  0  0  0  0  0
   -0.9590   -1.4900    0.0000 C   0  0  0  0  0  0  0  0  0
   -1.3715   -2.2045    0.0000 C   0  0  0  0  0  0  0  0  0
   -2.1965   -2.2045    0.0000 C   0  0  0  0  0  0  0  0  0
   -2.6090   -1.4900    0.0000 C   0  0  0  0  0  0  0  0  0
   -2.1965   -0.7756    0.0000 C   0  0  0  0  0  0  0  0  0
   -1.3715   -0.7756    0.0000 C   0  0  0  0  0  0  0  0  0
  1  2  1  0  0  0  0
  1  6  1  0  0  0  0
  2  3  1  0  0  0  0
  3  4  1  0  0  0  0
  4  5  1  0  0  0  0
  5  6  1  0  0  0  0
  6  7  1  0  0  0  0
  7  8  1  0  0  0  0
  7  9  1  0  0  0  0
  7 19  1  0  0  0  0
  9 10  1  0  0  0  0
 10 11  4  0  0  0  0
 10 15  4  0  0  0  0
 11 12  4  0  0  0  0
 12 13  4  0  0  0  0
 13 14  4  0  0  0  0
 14 15  4  0  0  0  0
 15 16  1  0  0  0  0
 16 17  1  0  0  0  0
 17 18  1  0  0  0  0
 19 20  4  0  0  0  0
 19 24  4  0  0  0  0
 20 21  4  0  0  0  0
 21 22  4  0  0  0  0
 22 23  4  0  0  0  0
 23 24  4  0  0  0  0
M  END
>  <Name_Molregno>
344535

>  <Norepinephrine transporter>
8.28

$$$$
344932
  Marvin  02231216192D 0   1.00000     0.00000     0

 25 27  0  0  1  0  0  0  0  0999 V2000
    0.3859   -2.7024    0.0000 O   0  0  0  0  0  0  0  0  0
    0.3859   -3.5274    0.0000 C   0  0  0  0  0  0  0  0  0
   -0.3286   -3.9399    0.0000 C   0  0  0  0  0  0  0  0  0
   -1.0431   -3.5274    0.0000 N   0  0  0  0  0  0  0  0  0
   -1.0431   -2.7024    0.0000 C   0  0  0  0  0  0  0  0  0
   -0.3286   -2.2899    0.0000 C   0  0  0  0  0  0  0  0  0
   -0.3286   -1.4649    0.0000 C   0  0  0  0  0  0  0  0  0
    0.4964   -1.4649    0.0000 O   0  0  0  0  0  0  0  0  0
   -0.3286   -0.6399    0.0000 C   0  0  0  0  0  0  0  0  0
    0.3859   -0.2274    0.0000 C   0  0  0  0  0  0  0  0  0
    1.1003   -0.6399    0.0000 C   0  0  0  0  0  0  0  0  0
    1.8148   -0.2274    0.0000 C   0  0  0  0  0  0  0  0  0
    1.8148    0.5976    0.0000 C   0  0  0  0  0  0  0  0  0
    1.1003    1.0101    0.0000 C   0  0  0  0  0  0  0  0  0
    0.3859    0.5976    0.0000 C   0  0  0  0  0  0  0  0  0
   -0.3286    1.0101    0.0000 O   0  0  0  0  0  0  0  0  0
   -1.0431    0.5976    0.0000 C   0  0  0  0  0  0  0  0  0
   -1.7575    1.0101    0.0000 C   0  0  0  0  0  0  0  0  0
   -1.0431   -0.2274    0.0000 C   0  0  0  0  0  0  0  0  0
   -1.1536   -1.4649    0.0000 C   0  0  0  0  0  0  0  0  0
   -1.5661   -2.1794    0.0000 C   0  0  0  0  0  0  0  0  0
   -2.3911   -2.1794    0.0000 C   0  0  0  0  0  0  0  0  0
   -2.8036   -1.4649    0.0000 C   0  0  0  0  0  0  0  0  0
   -2.3911   -0.7504    0.0000 C   0  0  0  0  0  0  0  0  0
   -1.5661   -0.7504    0.0000 C   0  0  0  0  0  0  0  0  0
  1  2  1  0  0  0  0
  1  6  1  0  0  0  0
  2  3  1  0  0  0  0
  3  4  1  0  0  0  0
  4  5  1  0  0  0  0
  5  6  1  0  0  0  0
  6  7  1  0  0  0  0
  7  8  1  0  0  0  0
  7  9  1  0  0  0  0
  7 20  1  0  0  0  0
  9 10  1  0  0  0  0
 10 11  4  0  0  0  0
 10 15  4  0  0  0  0
 11 12  4  0  0  0  0
 12 13  4  0  0  0  0
 13 14  4  0  0  0  0
 14 15  4  0  0  0  0
 15 16  1  0  0  0  0
 16 17  1  0  0  0  0
 17 18  1  0  0  0  0
 17 19  1  0  0  0  0
 20 21  4  0  0  0  0
 20 25  4  0  0  0  0
 21 22  4  0  0  0  0
 22 23  4  0  0  0  0
 23 24  4  0  0  0  0
 24 25  4  0  0  0  0
M  END
>  <Name_Molregno>
344932

>  <Norepinephrine transporter>
8.11

$$$$
344933
  Marvin  02231216192D 0   1.00000     0.00000     0

 26 28  0  0  1  0  0  0  0  0999 V2000
   -0.7256   -0.0233    0.0000 S   0  0  0  0  0  0  0  0  0
   -0.0111    0.3892    0.0000 C   0  0  0  0  0  0  0  0  0
    0.7034    0.8017    0.0000 F   0  0  0  0  0  0  0  0  0
   -0.4236    1.1036    0.0000 F   0  0  0  0  0  0  0  0  0
    0.4014   -0.3253    0.0000 F   0  0  0  0  0  0  0  0  0
   -0.7256   -0.8483    0.0000 C   0  0  0  0  0  0  0  0  0
   -0.0111   -1.2608    0.0000 C   0  0  0  0  0  0  0  0  0
   -0.0111   -2.0858    0.0000 C   0  0  0  0  0  0  0  0  0
   -0.7256   -2.4983    0.0000 C   0  0  0  0  0  0  0  0  0
   -1.4400   -2.0858    0.0000 C   0  0  0  0  0  0  0  0  0
   -1.4400   -1.2608    0.0000 C   0  0  0  0  0  0  0  0  0
   -2.1545   -0.8483    0.0000 C   0  0  0  0  0  0  0  0  0
   -2.1545   -0.0233    0.0000 C   0  0  0  0  0  0  0  0  0
   -1.3295   -0.0233    0.0000 O   0  0  0  0  0  0  0  0  0
   -2.1545    0.8017    0.0000 C   0  0  0  0  0  0  0  0  0
   -2.8690    1.2142    0.0000 O   0  0  0  0  0  0  0  0  0
   -2.8690    2.0392    0.0000 C   0  0  0  0  0  0  0  0  0
   -2.1545    2.4517    0.0000 C   0  0  0  0  0  0  0  0  0
   -1.4400    2.0392    0.0000 N   0  0  0  0  0  0  0  0  0
   -1.4400    1.2142    0.0000 C   0  0  0  0  0  0  0  0  0
   -2.9795   -0.0233    0.0000 C   0  0  0  0  0  0  0  0  0
   -3.3920   -0.7378    0.0000 C   0  0  0  0  0  0  0  0  0
   -4.2170   -0.7378    0.0000 C   0  0  0  0  0  0  0  0  0
   -4.6295   -0.0233    0.0000 C   0  0  0  0  0  0  0  0  0
   -4.2170    0.6911    0.0000 C   0  0  0  0  0  0  0  0  0
   -3.3920    0.6911    0.0000 C   0  0  0  0  0  0  0  0  0
  1  2  1  0  0  0  0
  1  6  1  0  0  0  0
  2  3  1  0  0  0  0
  2  4  1  0  0  0  0
  2  5  1  0  0  0  0
  6  7  4  0  0  0  0
  6 11  4  0  0  0  0
  7  8  4  0  0  0  0
  8  9  4  0  0  0  0
  9 10  4  0  0  0  0
 10 11  4  0  0  0  0
 11 12  1  0  0  0  0
 12 13  1  0  0  0  0
 13 14  1  0  0  0  0
 13 15  1  0  0  0  0
 13 21  1  0  0  0  0
 15 16  1  0  0  0  0
 15 20  1  0  0  0  0
 16 17  1  0  0  0  0
 17 18  1  0  0  0  0
 18 19  1  0  0  0  0
 19 20  1  0  0  0  0
 21 22  4  0  0  0  0
 21 26  4  0  0  0  0
 22 23  4  0  0  0  0
 23 24  4  0  0  0  0
 24 25  4  0  0  0  0
 25 26  4  0  0  0  0
M  END
>  <Name_Molregno>
344933

>  <Norepinephrine transporter>
7.26

$$$$
344941
  Marvin  02231216192D 0   1.00000     0.00000     0

 27 30  0  0  1  0  0  0  0  0999 V2000
    2.7511   -2.7800    0.0000 O   0  0  0  0  0  0  0  0  0
    2.7511   -3.6050    0.0000 C   0  0  0  0  0  0  0  0  0
    2.0367   -4.0175    0.0000 C   0  0  0  0  0  0  0  0  0
    1.3222   -3.6050    0.0000 N   0  0  0  0  0  0  0  0  0
    1.3222   -2.7800    0.0000 C   0  0  0  0  0  0  0  0  0
    2.0367   -2.3675    0.0000 C   0  0  0  0  0  0  0  0  0
    2.0367   -1.5425    0.0000 C   0  0  0  0  0  0  0  0  0
    2.8617   -1.5425    0.0000 O   0  0  0  0  0  0  0  0  0
    2.0367   -0.7175    0.0000 C   0  0  0  0  0  0  0  0  0
    2.7511   -0.3050    0.0000 C   0  0  0  0  0  0  0  0  0
    3.4656   -0.7175    0.0000 C   0  0  0  0  0  0  0  0  0
    4.1801   -0.3050    0.0000 C   0  0  0  0  0  0  0  0  0
    4.1801    0.5200    0.0000 C   0  0  0  0  0  0  0  0  0
    3.4656    0.9325    0.0000 C   0  0  0  0  0  0  0  0  0
    2.7511    0.5200    0.0000 C   0  0  0  0  0  0  0  0  0
    2.0367    0.9325    0.0000 C   0  0  0  0  0  0  0  0  0
    1.3222    0.5200    0.0000 C   0  0  0  0  0  0  0  0  0
    0.6077    0.9325    0.0000 C   0  0  0  0  0  0  0  0  0
    0.6077    1.7575    0.0000 C   0  0  0  0  0  0  0  0  0
    1.3222    2.1700    0.0000 C   0  0  0  0  0  0  0  0  0
    2.0367    1.7575    0.0000 C   0  0  0  0  0  0  0  0  0
    1.2117   -1.5425    0.0000 C   0  0  0  0  0  0  0  0  0
    0.7992   -2.2570    0.0000 C   0  0  0  0  0  0  0  0  0
   -0.0258   -2.2570    0.0000 C   0  0  0  0  0  0  0  0  0
   -0.4383   -1.5425    0.0000 C   0  0  0  0  0  0  0  0  0
   -0.0258   -0.8281    0.0000 C   0  0  0  0  0  0  0  0  0
    0.7992   -0.8281    0.0000 C   0  0  0  0  0  0  0  0  0
  1  2  1  0  0  0  0
  1  6  1  0  0  0  0
  2  3  1  0  0  0  0
  3  4  1  0  0  0  0
  4  5  1  0  0  0  0
  5  6  1  0  0  0  0
  6  7  1  0  0  0  0
  7  8  1  0  0  0  0
  7  9  1  0  0  0  0
  7 22  1  0  0  0  0
  9 10  1  0  0  0  0
 10 11  4  0  0  0  0
 10 15  4  0  0  0  0
 11 12  4  0  0  0  0
 12 13  4  0  0  0  0
 13 14  4  0  0  0  0
 14 15  4  0  0  0  0
 15 16  1  0  0  0  0
 16 17  4  0  0  0  0
 16 21  4  0  0  0  0
 17 18  4  0  0  0  0
 18 19  4  0  0  0  0
 19 20  4  0  0  0  0
 20 21  4  0  0  0  0
 22 23  4  0  0  0  0
 22 27  4  0  0  0  0
 23 24  4  0  0  0  0
 24 25  4  0  0  0  0
 25 26  4  0  0  0  0
 26 27  4  0  0  0  0
M  END
>  <Name_Molregno>
344941

>  <Norepinephrine transporter>
8.43

$$$$
346961
  Marvin  02231216192D 0   1.00000     0.00000     0

 20 21  0  0  0  0  0  0  0  0999 V2000
   -4.1024   -1.3710    0.0000 N   0  0  0  0  0  0  0  0  0
   -4.1024   -0.5460    0.0000 C   0  0  0  0  0  0  0  0  0
   -3.3879   -0.1335    0.0000 C   0  0  0  0  0  0  0  0  0
   -2.6734   -0.5460    0.0000 C   0  0  0  0  0  0  0  0  0
   -1.9590   -0.1335    0.0000 N   0  0  0  0  0  0  0  0  0
   -1.9590    0.6915    0.0000 C   0  0  0  0  0  0  0  0  0
   -2.6734    1.1040    0.0000 C   0  0  0  0  0  0  0  0  0
   -3.3879    0.6915    0.0000 C   0  0  0  0  0  0  0  0  0
   -4.1024    1.1040    0.0000 C   0  0  0  0  0  0  0  0  0
   -4.1024    1.9290    0.0000 C   0  0  0  0  0  0  0  0  0
   -3.3879    2.3415    0.0000 C   0  0  0  0  0  0  0  0  0
   -2.6734    1.9290    0.0000 C   0  0  0  0  0  0  0  0  0
   -4.8169    0.6915    0.0000 C   0  0  0  0  0  0  0  0  0
   -5.5313    0.2790    0.0000 N   0  0  0  0  0  0  0  0  0
   -1.2445   -0.5460    0.0000 C   0  0  0  0  0  0  0  0  0
   -0.5300   -0.1335    0.0000 C   0  0  0  0  0  0  0  0  0
   -0.5300    0.6915    0.0000 C   0  0  0  0  0  0  0  0  0
    0.1844   -0.5460    0.0000 C   0  0  0  0  0  0  0  0  0
   -2.6734   -1.3710    0.0000 C   0  0  0  0  0  0  0  0  0
   -3.3879   -1.7835    0.0000 C   0  0  0  0  0  0  0  0  0
  1  2  1  0  0  0  0
  1 20  1  0  0  0  0
  2  3  1  0  0  0  0
  3  4  1  0  0  0  0
  4  5  1  0  0  0  0
  4 19  1  0  0  0  0
  5  6  1  0  0  0  0
  5 15  1  0  0  0  0
  6  7  1  0  0  0  0
  7  8  4  0  0  0  0
  7 12  4  0  0  0  0
  8  9  4  0  0  0  0
  9 10  4  0  0  0  0
  9 13  1  0  0  0  0
 10 11  4  0  0  0  0
 11 12  4  0  0  0  0
 13 14  3  0  0  0  0
 15 16  1  0  0  0  0
 16 17  1  0  0  0  0
 16 18  1  0  0  0  0
 19 20  1  0  0  0  0
M  END
>  <Name_Molregno>
346961

>  <Dopamine transporter>
6.7

>  <Norepinephrine transporter>
6.16

>  <Serotonin transporter>
9.32

$$$$
347015
  Marvin  02231216192D 0   1.00000     0.00000     0

 19 20  0  0  0  0  0  0  0  0999 V2000
    1.0810   -1.7229    0.0000 N   0  0  0  0  0  0  0  0  0
    1.0810   -0.8979    0.0000 C   0  0  0  0  0  0  0  0  0
    1.7955   -0.4854    0.0000 C   0  0  0  0  0  0  0  0  0
    2.5100   -0.8979    0.0000 C   0  0  0  0  0  0  0  0  0
    3.2245   -0.4854    0.0000 N   0  0  0  0  0  0  0  0  0
    3.2245    0.3396    0.0000 C   0  0  0  0  0  0  0  0  0
    2.5100    0.7521    0.0000 C   0  0  0  0  0  0  0  0  0
    1.7955    0.3396    0.0000 C   0  0  0  0  0  0  0  0  0
    1.0810    0.7521    0.0000 C   0  0  0  0  0  0  0  0  0
    1.0810    1.5771    0.0000 C   0  0  0  0  0  0  0  0  0
    1.7955    1.9896    0.0000 C   0  0  0  0  0  0  0  0  0
    2.5100    1.5771    0.0000 C   0  0  0  0  0  0  0  0  0
    3.2245    1.9896    0.0000 C   0  0  0  0  0  0  0  0  0
    3.9389   -0.8979    0.0000 C   0  0  0  0  0  0  0  0  0
    4.6534   -0.4854    0.0000 C   0  0  0  0  0  0  0  0  0
    4.6534    0.3396    0.0000 C   0  0  0  0  0  0  0  0  0
    5.3679   -0.8979    0.0000 C   0  0  0  0  0  0  0  0  0
    2.5100   -1.7229    0.0000 C   0  0  0  0  0  0  0  0  0
    1.7955   -2.1354    0.0000 C   0  0  0  0  0  0  0  0  0
  1  2  1  0  0  0  0
  1 19  1  0  0  0  0
  2  3  1  0  0  0  0
  3  4  1  0  0  0  0
  4  5  1  0  0  0  0
  4 18  1  0  0  0  0
  5  6  1  0  0  0  0
  5 14  1  0  0  0  0
  6  7  1  0  0  0  0
  7  8  4  0  0  0  0
  7 12  4  0  0  0  0
  8  9  4  0  0  0  0
  9 10  4  0  0  0  0
 10 11  4  0  0  0  0
 11 12  4  0  0  0  0
 12 13  1  0  0  0  0
 14 15  1  0  0  0  0
 15 16  1  0  0  0  0
 15 17  1  0  0  0  0
 18 19  1  0  0  0  0
M  END
>  <Name_Molregno>
347015

>  <Dopamine transporter>
6.62

>  <Norepinephrine transporter>
8.48

>  <Serotonin transporter>
8.82

$$$$
347022
  Marvin  02231216192D 0   1.00000     0.00000     0

 19 20  0  0  0  0  0  0  0  0999 V2000
   -4.0985   -1.5259    0.0000 N   0  0  0  0  0  0  0  0  0
   -4.0985   -0.7009    0.0000 C   0  0  0  0  0  0  0  0  0
   -3.3840   -0.2884    0.0000 C   0  0  0  0  0  0  0  0  0
   -2.6695   -0.7009    0.0000 C   0  0  0  0  0  0  0  0  0
   -1.9551   -0.2884    0.0000 N   0  0  0  0  0  0  0  0  0
   -1.9551    0.5366    0.0000 C   0  0  0  0  0  0  0  0  0
   -2.6695    0.9491    0.0000 C   0  0  0  0  0  0  0  0  0
   -3.3840    0.5366    0.0000 C   0  0  0  0  0  0  0  0  0
   -4.0985    0.9491    0.0000 C   0  0  0  0  0  0  0  0  0
   -4.0985    1.7741    0.0000 C   0  0  0  0  0  0  0  0  0
   -3.3840    2.1866    0.0000 C   0  0  0  0  0  0  0  0  0
   -2.6695    1.7741    0.0000 C   0  0  0  0  0  0  0  0  0
   -4.8129    0.5366    0.0000 C   0  0  0  0  0  0  0  0  0
   -1.2406   -0.7009    0.0000 C   0  0  0  0  0  0  0  0  0
   -0.5261   -0.2884    0.0000 C   0  0  0  0  0  0  0  0  0
   -0.5261    0.5366    0.0000 C   0  0  0  0  0  0  0  0  0
    0.1884   -0.7009    0.0000 C   0  0  0  0  0  0  0  0  0
   -2.6695   -1.5259    0.0000 C   0  0  0  0  0  0  0  0  0
   -3.3840   -1.9384    0.0000 C   0  0  0  0  0  0  0  0  0
  1  2  1  0  0  0  0
  1 19  1  0  0  0  0
  2  3  1  0  0  0  0
  3  4  1  0  0  0  0
  4  5  1  0  0  0  0
  4 18  1  0  0  0  0
  5  6  1  0  0  0  0
  5 14  1  0  0  0  0
  6  7  1  0  0  0  0
  7  8  4  0  0  0  0
  7 12  4  0  0  0  0
  8  9  4  0  0  0  0
  9 10  4  0  0  0  0
  9 13  1  0  0  0  0
 10 11  4  0  0  0  0
 11 12  4  0  0  0  0
 14 15  1  0  0  0  0
 15 16  1  0  0  0  0
 15 17  1  0  0  0  0
 18 19  1  0  0  0  0
M  END
>  <Name_Molregno>
347022

>  <Dopamine transporter>
7.01

>  <Norepinephrine transporter>
6.82

>  <Serotonin transporter>
8.66

$$$$
347047
  Marvin  02231216192D 0   1.00000     0.00000     0

 23 24  0  0  0  0  0  0  0  0999 V2000
   -1.6743    3.5011    0.0000 F   0  0  0  0  0  0  0  0  0
   -0.9599    3.0886    0.0000 C   0  0  0  0  0  0  0  0  0
   -1.3724    2.3742    0.0000 F   0  0  0  0  0  0  0  0  0
   -0.5474    3.8031    0.0000 F   0  0  0  0  0  0  0  0  0
   -0.2454    2.6761    0.0000 C   0  0  0  0  0  0  0  0  0
    0.4691    3.0886    0.0000 C   0  0  0  0  0  0  0  0  0
    1.1835    2.6761    0.0000 C   0  0  0  0  0  0  0  0  0
    1.1835    1.8511    0.0000 C   0  0  0  0  0  0  0  0  0
    0.4691    1.4386    0.0000 C   0  0  0  0  0  0  0  0  0
   -0.2454    1.8511    0.0000 C   0  0  0  0  0  0  0  0  0
   -0.9599    1.4386    0.0000 C   0  0  0  0  0  0  0  0  0
   -0.9599    0.6136    0.0000 N   0  0  0  0  0  0  0  0  0
   -0.2454    0.2011    0.0000 C   0  0  0  0  0  0  0  0  0
   -0.2454   -0.6239    0.0000 C   0  0  0  0  0  0  0  0  0
    0.4691   -1.0364    0.0000 C   0  0  0  0  0  0  0  0  0
    0.4691    0.6136    0.0000 C   0  0  0  0  0  0  0  0  0
    1.1835    0.2011    0.0000 C   0  0  0  0  0  0  0  0  0
   -1.6743    0.2011    0.0000 C   0  0  0  0  0  0  0  0  0
   -1.6743   -0.6239    0.0000 C   0  0  0  0  0  0  0  0  0
   -2.3888   -1.0364    0.0000 C   0  0  0  0  0  0  0  0  0
   -3.1033   -0.6239    0.0000 N   0  0  0  0  0  0  0  0  0
   -3.1033    0.2011    0.0000 C   0  0  0  0  0  0  0  0  0
   -2.3888    0.6136    0.0000 C   0  0  0  0  0  0  0  0  0
  1  2  1  0  0  0  0
  2  3  1  0  0  0  0
  2  4  1  0  0  0  0
  2  5  1  0  0  0  0
  5  6  4  0  0  0  0
  5 10  4  0  0  0  0
  6  7  4  0  0  0  0
  7  8  4  0  0  0  0
  8  9  4  0  0  0  0
  9 10  4  0  0  0  0
 10 11  1  0  0  0  0
 11 12  1  0  0  0  0
 12 13  1  0  0  0  0
 12 18  1  0  0  0  0
 13 14  1  0  0  0  0
 13 16  1  0  0  0  0
 14 15  1  0  0  0  0
 16 17  1  0  0  0  0
 18 19  1  0  0  0  0
 18 23  1  0  0  0  0
 19 20  1  0  0  0  0
 20 21  1  0  0  0  0
 21 22  1  0  0  0  0
 22 23  1  0  0  0  0
M  END
>  <Name_Molregno>
347047

>  <Norepinephrine transporter>
7.07

>  <Serotonin transporter>
8.17

$$$$
347048
  Marvin  02231216192D 0   1.00000     0.00000     0

 23 25  0  0  0  0  0  0  0  0999 V2000
    0.8374    3.1756    0.0000 F   0  0  0  0  0  0  0  0  0
    0.8374    2.3506    0.0000 C   0  0  0  0  0  0  0  0  0
    0.0124    2.3506    0.0000 F   0  0  0  0  0  0  0  0  0
    1.6624    2.3506    0.0000 F   0  0  0  0  0  0  0  0  0
    0.8374    1.5256    0.0000 C   0  0  0  0  0  0  0  0  0
    1.5519    1.1131    0.0000 C   0  0  0  0  0  0  0  0  0
    1.5519    0.2881    0.0000 C   0  0  0  0  0  0  0  0  0
    0.8374   -0.1244    0.0000 C   0  0  0  0  0  0  0  0  0
    0.1230    0.2881    0.0000 C   0  0  0  0  0  0  0  0  0
    0.1230    1.1131    0.0000 C   0  0  0  0  0  0  0  0  0
   -0.5915    1.5256    0.0000 C   0  0  0  0  0  0  0  0  0
   -1.3060    1.1131    0.0000 N   0  0  0  0  0  0  0  0  0
   -1.3060    0.2881    0.0000 C   0  0  0  0  0  0  0  0  0
   -0.6385   -0.1968    0.0000 C   0  0  0  0  0  0  0  0  0
   -0.8935   -0.9814    0.0000 C   0  0  0  0  0  0  0  0  0
   -1.7185   -0.9814    0.0000 C   0  0  0  0  0  0  0  0  0
   -1.9734   -0.1968    0.0000 C   0  0  0  0  0  0  0  0  0
   -2.0204    1.5256    0.0000 C   0  0  0  0  0  0  0  0  0
   -2.7349    1.1131    0.0000 C   0  0  0  0  0  0  0  0  0
   -3.4494    1.5256    0.0000 C   0  0  0  0  0  0  0  0  0
   -3.4494    2.3506    0.0000 N   0  0  0  0  0  0  0  0  0
   -2.7349    2.7631    0.0000 C   0  0  0  0  0  0  0  0  0
   -2.0204    2.3506    0.0000 C   0  0  0  0  0  0  0  0  0
  1  2  1  0  0  0  0
  2  3  1  0  0  0  0
  2  4  1  0  0  0  0
  2  5  1  0  0  0  0
  5  6  4  0  0  0  0
  5 10  4  0  0  0  0
  6  7  4  0  0  0  0
  7  8  4  0  0  0  0
  8  9  4  0  0  0  0
  9 10  4  0  0  0  0
 10 11  1  0  0  0  0
 11 12  1  0  0  0  0
 12 13  1  0  0  0  0
 12 18  1  0  0  0  0
 13 14  1  0  0  0  0
 13 17  1  0  0  0  0
 14 15  1  0  0  0  0
 15 16  1  0  0  0  0
 16 17  1  0  0  0  0
 18 19  1  0  0  0  0
 18 23  1  0  0  0  0
 19 20  1  0  0  0  0
 20 21  1  0  0  0  0
 21 22  1  0  0  0  0
 22 23  1  0  0  0  0
M  END
>  <Name_Molregno>
347048

>  <Norepinephrine transporter>
8.39

>  <Serotonin transporter>
8.44

$$$$
347055
  Marvin  02231216192D 0   1.00000     0.00000     0

 24 25  0  0  0  0  0  0  0  0999 V2000
   -5.1865   -2.0755    0.0000 F   0  0  0  0  0  0  0  0  0
   -4.7740   -1.3610    0.0000 C   0  0  0  0  0  0  0  0  0
   -4.0595   -1.7735    0.0000 F   0  0  0  0  0  0  0  0  0
   -5.4884   -0.9485    0.0000 F   0  0  0  0  0  0  0  0  0
   -4.3615   -0.6466    0.0000 C   0  0  0  0  0  0  0  0  0
   -4.7740    0.0679    0.0000 C   0  0  0  0  0  0  0  0  0
   -4.3615    0.7824    0.0000 C   0  0  0  0  0  0  0  0  0
   -3.5365    0.7824    0.0000 C   0  0  0  0  0  0  0  0  0
   -3.1240    0.0679    0.0000 C   0  0  0  0  0  0  0  0  0
   -3.5365   -0.6466    0.0000 C   0  0  0  0  0  0  0  0  0
   -3.1240   -1.3610    0.0000 C   0  0  0  0  0  0  0  0  0
   -2.2990   -1.3610    0.0000 N   0  0  0  0  0  0  0  0  0
   -1.8865   -2.0755    0.0000 C   0  0  0  0  0  0  0  0  0
   -1.0615   -2.0755    0.0000 C   0  0  0  0  0  0  0  0  0
   -0.6490   -2.7900    0.0000 C   0  0  0  0  0  0  0  0  0
    0.1760   -2.7900    0.0000 C   0  0  0  0  0  0  0  0  0
   -0.6490   -1.3610    0.0000 C   0  0  0  0  0  0  0  0  0
    0.1760   -1.3610    0.0000 C   0  0  0  0  0  0  0  0  0
   -1.8865   -0.6466    0.0000 C   0  0  0  0  0  0  0  0  0
   -2.2990    0.0679    0.0000 C   0  0  0  0  0  0  0  0  0
   -1.8865    0.7824    0.0000 C   0  0  0  0  0  0  0  0  0
   -1.0615    0.7824    0.0000 N   0  0  0  0  0  0  0  0  0
   -0.6490    0.0679    0.0000 C   0  0  0  0  0  0  0  0  0
   -1.0615   -0.6466    0.0000 C   0  0  0  0  0  0  0  0  0
  1  2  1  0  0  0  0
  2  3  1  0  0  0  0
  2  4  1  0  0  0  0
  2  5  1  0  0  0  0
  5  6  4  0  0  0  0
  5 10  4  0  0  0  0
  6  7  4  0  0  0  0
  7  8  4  0  0  0  0
  8  9  4  0  0  0  0
  9 10  4  0  0  0  0
 10 11  1  0  0  0  0
 11 12  1  0  0  0  0
 12 13  1  0  0  0  0
 12 19  1  0  0  0  0
 13 14  1  0  0  0  0
 14 15  1  0  0  0  0
 14 17  1  0  0  0  0
 15 16  1  0  0  0  0
 17 18  1  0  0  0  0
 19 20  1  0  0  0  0
 19 24  1  0  0  0  0
 20 21  1  0  0  0  0
 21 22  1  0  0  0  0
 22 23  1  0  0  0  0
 23 24  1  0  0  0  0
M  END
>  <Name_Molregno>
347055

>  <Norepinephrine transporter>
8.21

>  <Serotonin transporter>
8.16

$$$$
347056
  Marvin  02231216192D 0   1.00000     0.00000     0

 19 20  0  0  0  0  0  0  0  0999 V2000
    1.0832    0.0081    0.0000 F   0  0  0  0  0  0  0  0  0
    1.7977    0.4206    0.0000 C   0  0  0  0  0  0  0  0  0
    2.5122    0.0081    0.0000 C   0  0  0  0  0  0  0  0  0
    3.2267    0.4206    0.0000 C   0  0  0  0  0  0  0  0  0
    3.2267    1.2456    0.0000 C   0  0  0  0  0  0  0  0  0
    2.5122    1.6581    0.0000 C   0  0  0  0  0  0  0  0  0
    1.7977    1.2456    0.0000 C   0  0  0  0  0  0  0  0  0
    3.9411    0.0081    0.0000 C   0  0  0  0  0  0  0  0  0
    3.9411   -0.8169    0.0000 N   0  0  0  0  0  0  0  0  0
    4.6556   -1.2294    0.0000 C   0  0  0  0  0  0  0  0  0
    5.3701   -0.8169    0.0000 C   0  0  0  0  0  0  0  0  0
    5.3701    0.0081    0.0000 C   0  0  0  0  0  0  0  0  0
    6.0845   -1.2294    0.0000 C   0  0  0  0  0  0  0  0  0
    3.2267   -1.2294    0.0000 C   0  0  0  0  0  0  0  0  0
    3.2267   -2.0544    0.0000 C   0  0  0  0  0  0  0  0  0
    2.5122   -2.4669    0.0000 C   0  0  0  0  0  0  0  0  0
    1.7977   -2.0544    0.0000 N   0  0  0  0  0  0  0  0  0
    1.7977   -1.2294    0.0000 C   0  0  0  0  0  0  0  0  0
    2.5122   -0.8169    0.0000 C   0  0  0  0  0  0  0  0  0
  1  2  1  0  0  0  0
  2  3  4  0  0  0  0
  2  7  4  0  0  0  0
  3  4  4  0  0  0  0
  4  5  4  0  0  0  0
  4  8  1  0  0  0  0
  5  6  4  0  0  0  0
  6  7  4  0  0  0  0
  8  9  1  0  0  0  0
  9 10  1  0  0  0  0
  9 14  1  0  0  0  0
 10 11  1  0  0  0  0
 11 12  1  0  0  0  0
 11 13  1  0  0  0  0
 14 15  1  0  0  0  0
 14 19  1  0  0  0  0
 15 16  1  0  0  0  0
 16 17  1  0  0  0  0
 17 18  1  0  0  0  0
 18 19  1  0  0  0  0
M  END
>  <Name_Molregno>
347056

>  <Dopamine transporter>
7.06

>  <Norepinephrine transporter>
7.37

$$$$
347063
  Marvin  02231216192D 0   1.00000     0.00000     0

 19 20  0  0  0  0  0  0  0  0999 V2000
    1.1703    2.7441    0.0000 F   0  0  0  0  0  0  0  0  0
    1.8848    2.3316    0.0000 C   0  0  0  0  0  0  0  0  0
    2.5993    2.7441    0.0000 C   0  0  0  0  0  0  0  0  0
    3.3137    2.3316    0.0000 C   0  0  0  0  0  0  0  0  0
    3.3137    1.5066    0.0000 C   0  0  0  0  0  0  0  0  0
    2.5993    1.0941    0.0000 C   0  0  0  0  0  0  0  0  0
    1.8848    1.5066    0.0000 C   0  0  0  0  0  0  0  0  0
    4.0282    1.0941    0.0000 C   0  0  0  0  0  0  0  0  0
    4.0282    0.2691    0.0000 N   0  0  0  0  0  0  0  0  0
    4.7427   -0.1434    0.0000 C   0  0  0  0  0  0  0  0  0
    5.4571    0.2691    0.0000 C   0  0  0  0  0  0  0  0  0
    5.4571    1.0941    0.0000 C   0  0  0  0  0  0  0  0  0
    6.1716   -0.1434    0.0000 C   0  0  0  0  0  0  0  0  0
    3.3137   -0.1434    0.0000 C   0  0  0  0  0  0  0  0  0
    3.3137   -0.9684    0.0000 C   0  0  0  0  0  0  0  0  0
    2.5993   -1.3809    0.0000 C   0  0  0  0  0  0  0  0  0
    1.8848   -0.9684    0.0000 N   0  0  0  0  0  0  0  0  0
    1.8848   -0.1434    0.0000 C   0  0  0  0  0  0  0  0  0
    2.5993    0.2691    0.0000 C   0  0  0  0  0  0  0  0  0
  1  2  1  0  0  0  0
  2  3  4  0  0  0  0
  2  7  4  0  0  0  0
  3  4  4  0  0  0  0
  4  5  4  0  0  0  0
  5  6  4  0  0  0  0
  5  8  1  0  0  0  0
  6  7  4  0  0  0  0
  8  9  1  0  0  0  0
  9 10  1  0  0  0  0
  9 14  1  0  0  0  0
 10 11  1  0  0  0  0
 11 12  1  0  0  0  0
 11 13  1  0  0  0  0
 14 15  1  0  0  0  0
 14 19  1  0  0  0  0
 15 16  1  0  0  0  0
 16 17  1  0  0  0  0
 17 18  1  0  0  0  0
 18 19  1  0  0  0  0
M  END
>  <Name_Molregno>
347063

>  <Dopamine transporter>
6.7

>  <Norepinephrine transporter>
7.11

>  <Serotonin transporter>
8.72

$$$$
347099
  Marvin  02231216192D 0   1.00000     0.00000     0

 20 21  0  0  0  0  0  0  0  0999 V2000
    1.7030   -1.8037    0.0000 N   0  0  0  0  0  0  0  0  0
    1.7030   -0.9787    0.0000 C   0  0  0  0  0  0  0  0  0
    2.4175   -0.5662    0.0000 C   0  0  0  0  0  0  0  0  0
    3.1320   -0.9787    0.0000 C   0  0  0  0  0  0  0  0  0
    3.8464   -0.5662    0.0000 N   0  0  0  0  0  0  0  0  0
    3.8464    0.2588    0.0000 C   0  0  0  0  0  0  0  0  0
    3.1320    0.6713    0.0000 C   0  0  0  0  0  0  0  0  0
    2.4175    0.2588    0.0000 C   0  0  0  0  0  0  0  0  0
    1.7030    0.6713    0.0000 C   0  0  0  0  0  0  0  0  0
    1.7030    1.4963    0.0000 C   0  0  0  0  0  0  0  0  0
    2.4175    1.9088    0.0000 C   0  0  0  0  0  0  0  0  0
    3.1320    1.4963    0.0000 C   0  0  0  0  0  0  0  0  0
    0.9885    1.9088    0.0000 C   0  0  0  0  0  0  0  0  0
    0.2741    2.3213    0.0000 N   0  0  0  0  0  0  0  0  0
    4.5609   -0.9787    0.0000 C   0  0  0  0  0  0  0  0  0
    5.2754   -0.5662    0.0000 C   0  0  0  0  0  0  0  0  0
    5.2754    0.2588    0.0000 C   0  0  0  0  0  0  0  0  0
    5.9898   -0.9787    0.0000 C   0  0  0  0  0  0  0  0  0
    3.1320   -1.8037    0.0000 C   0  0  0  0  0  0  0  0  0
    2.4175   -2.2162    0.0000 C   0  0  0  0  0  0  0  0  0
  1  2  1  0  0  0  0
  1 20  1  0  0  0  0
  2  3  1  0  0  0  0
  3  4  1  0  0  0  0
  4  5  1  0  0  0  0
  4 19  1  0  0  0  0
  5  6  1  0  0  0  0
  5 15  1  0  0  0  0
  6  7  1  0  0  0  0
  7  8  4  0  0  0  0
  7 12  4  0  0  0  0
  8  9  4  0  0  0  0
  9 10  4  0  0  0  0
 10 11  4  0  0  0  0
 10 13  1  0  0  0  0
 11 12  4  0  0  0  0
 13 14  3  0  0  0  0
 15 16  1  0  0  0  0
 16 17  1  0  0  0  0
 16 18  1  0  0  0  0
 19 20  1  0  0  0  0
M  END
>  <Name_Molregno>
347099

>  <Norepinephrine transporter>
6.72

>  <Serotonin transporter>
9.55

$$$$
347100
  Marvin  02231216192D 0   1.00000     0.00000     0

 20 21  0  0  0  0  0  0  0  0999 V2000
    1.3633   -1.8819    0.0000 N   0  0  0  0  0  0  0  0  0
    1.3633   -1.0569    0.0000 C   0  0  0  0  0  0  0  0  0
    2.0778   -0.6444    0.0000 C   0  0  0  0  0  0  0  0  0
    2.7923   -1.0569    0.0000 C   0  0  0  0  0  0  0  0  0
    3.5067   -0.6444    0.0000 N   0  0  0  0  0  0  0  0  0
    3.5067    0.1806    0.0000 C   0  0  0  0  0  0  0  0  0
    2.7923    0.5931    0.0000 C   0  0  0  0  0  0  0  0  0
    2.0778    0.1806    0.0000 C   0  0  0  0  0  0  0  0  0
    1.3633    0.5931    0.0000 C   0  0  0  0  0  0  0  0  0
    1.3633    1.4181    0.0000 C   0  0  0  0  0  0  0  0  0
    2.0778    1.8306    0.0000 C   0  0  0  0  0  0  0  0  0
    2.7922    1.4181    0.0000 C   0  0  0  0  0  0  0  0  0
    3.5067    1.8306    0.0000 C   0  0  0  0  0  0  0  0  0
    0.6488    1.8306    0.0000 C   0  0  0  0  0  0  0  0  0
    4.2212   -1.0569    0.0000 C   0  0  0  0  0  0  0  0  0
    4.9357   -0.6444    0.0000 C   0  0  0  0  0  0  0  0  0
    4.9357    0.1806    0.0000 C   0  0  0  0  0  0  0  0  0
    5.6501   -1.0569    0.0000 C   0  0  0  0  0  0  0  0  0
    2.7923   -1.8819    0.0000 C   0  0  0  0  0  0  0  0  0
    2.0778   -2.2944    0.0000 C   0  0  0  0  0  0  0  0  0
  1  2  1  0  0  0  0
  1 20  1  0  0  0  0
  2  3  1  0  0  0  0
  3  4  1  0  0  0  0
  4  5  1  0  0  0  0
  4 19  1  0  0  0  0
  5  6  1  0  0  0  0
  5 15  1  0  0  0  0
  6  7  1  0  0  0  0
  7  8  4  0  0  0  0
  7 12  4  0  0  0  0
  8  9  4  0  0  0  0
  9 10  4  0  0  0  0
 10 11  4  0  0  0  0
 10 14  1  0  0  0  0
 11 12  4  0  0  0  0
 12 13  1  0  0  0  0
 15 16  1  0  0  0  0
 16 17  1  0  0  0  0
 16 18  1  0  0  0  0
 19 20  1  0  0  0  0
M  END
>  <Name_Molregno>
347100

>  <Norepinephrine transporter>
8.32

>  <Serotonin transporter>
9.41

$$$$
347107
  Marvin  02231216192D 0   1.00000     0.00000     0

 19 20  0  0  0  0  0  0  0  0999 V2000
    1.3577   -1.6779    0.0000 N   0  0  0  0  0  0  0  0  0
    1.3577   -0.8529    0.0000 C   0  0  0  0  0  0  0  0  0
    2.0722   -0.4404    0.0000 C   0  0  0  0  0  0  0  0  0
    2.7867   -0.8529    0.0000 C   0  0  0  0  0  0  0  0  0
    3.5011   -0.4404    0.0000 N   0  0  0  0  0  0  0  0  0
    3.5011    0.3846    0.0000 C   0  0  0  0  0  0  0  0  0
    2.7867    0.7971    0.0000 C   0  0  0  0  0  0  0  0  0
    2.0722    0.3846    0.0000 C   0  0  0  0  0  0  0  0  0
    1.3577    0.7971    0.0000 C   0  0  0  0  0  0  0  0  0
    1.3577    1.6221    0.0000 C   0  0  0  0  0  0  0  0  0
    2.0722    2.0346    0.0000 C   0  0  0  0  0  0  0  0  0
    2.7867    1.6221    0.0000 C   0  0  0  0  0  0  0  0  0
    0.6433    2.0346    0.0000 C   0  0  0  0  0  0  0  0  0
    4.2156   -0.8529    0.0000 C   0  0  0  0  0  0  0  0  0
    4.9301   -0.4404    0.0000 C   0  0  0  0  0  0  0  0  0
    4.9301    0.3846    0.0000 C   0  0  0  0  0  0  0  0  0
    5.6445   -0.8529    0.0000 C   0  0  0  0  0  0  0  0  0
    2.7867   -1.6779    0.0000 C   0  0  0  0  0  0  0  0  0
    2.0722   -2.0904    0.0000 C   0  0  0  0  0  0  0  0  0
  1  2  1  0  0  0  0
  1 19  1  0  0  0  0
  2  3  1  0  0  0  0
  3  4  1  0  0  0  0
  4  5  1  0  0  0  0
  4 18  1  0  0  0  0
  5  6  1  0  0  0  0
  5 14  1  0  0  0  0
  6  7  1  0  0  0  0
  7  8  4  0  0  0  0
  7 12  4  0  0  0  0
  8  9  4  0  0  0  0
  9 10  4  0  0  0  0
 10 11  4  0  0  0  0
 10 13  1  0  0  0  0
 11 12  4  0  0  0  0
 14 15  1  0  0  0  0
 15 16  1  0  0  0  0
 15 17  1  0  0  0  0
 18 19  1  0  0  0  0
M  END
>  <Name_Molregno>
347107

>  <Norepinephrine transporter>
7.16

>  <Serotonin transporter>
9

$$$$
347108
  Marvin  02231216192D 0   1.00000     0.00000     0

 19 20  0  0  0  0  0  0  0  0999 V2000
   -0.4093    0.0348    0.0000 F   0  0  0  0  0  0  0  0  0
   -1.1238   -0.3777    0.0000 C   0  0  0  0  0  0  0  0  0
   -1.8382    0.0348    0.0000 C   0  0  0  0  0  0  0  0  0
   -2.5527   -0.3777    0.0000 C   0  0  0  0  0  0  0  0  0
   -2.5527   -1.2027    0.0000 C   0  0  0  0  0  0  0  0  0
   -1.8382   -1.6152    0.0000 C   0  0  0  0  0  0  0  0  0
   -1.1238   -1.2027    0.0000 C   0  0  0  0  0  0  0  0  0
   -0.4093   -1.6152    0.0000 C   0  0  0  0  0  0  0  0  0
   -0.4093   -2.4402    0.0000 N   0  0  0  0  0  0  0  0  0
    0.3052   -2.8527    0.0000 C   0  0  0  0  0  0  0  0  0
    1.0197   -2.4402    0.0000 C   0  0  0  0  0  0  0  0  0
    1.0197   -1.6152    0.0000 C   0  0  0  0  0  0  0  0  0
    1.7341   -2.8527    0.0000 C   0  0  0  0  0  0  0  0  0
   -1.1238   -2.8527    0.0000 C   0  0  0  0  0  0  0  0  0
   -1.1238   -3.6777    0.0000 C   0  0  0  0  0  0  0  0  0
   -1.8382   -4.0902    0.0000 C   0  0  0  0  0  0  0  0  0
   -2.5527   -3.6777    0.0000 N   0  0  0  0  0  0  0  0  0
   -2.5527   -2.8527    0.0000 C   0  0  0  0  0  0  0  0  0
   -1.8382   -2.4402    0.0000 C   0  0  0  0  0  0  0  0  0
  1  2  1  0  0  0  0
  2  3  4  0  0  0  0
  2  7  4  0  0  0  0
  3  4  4  0  0  0  0
  4  5  4  0  0  0  0
  5  6  4  0  0  0  0
  6  7  4  0  0  0  0
  7  8  1  0  0  0  0
  8  9  1  0  0  0  0
  9 10  1  0  0  0  0
  9 14  1  0  0  0  0
 10 11  1  0  0  0  0
 11 12  1  0  0  0  0
 11 13  1  0  0  0  0
 14 15  1  0  0  0  0
 14 19  1  0  0  0  0
 15 16  1  0  0  0  0
 16 17  1  0  0  0  0
 17 18  1  0  0  0  0
 18 19  1  0  0  0  0
M  END
>  <Name_Molregno>
347108

>  <Dopamine transporter>
6.48

>  <Norepinephrine transporter>
7.82

$$$$
347109
  Marvin  02231216192D 0   1.00000     0.00000     0

 23 24  0  0  0  0  0  0  0  0999 V2000
    1.5229    0.3815    0.0000 F   0  0  0  0  0  0  0  0  0
    0.8084   -0.0310    0.0000 C   0  0  0  0  0  0  0  0  0
    0.8084   -0.8560    0.0000 C   0  0  0  0  0  0  0  0  0
    0.0939   -1.2685    0.0000 C   0  0  0  0  0  0  0  0  0
   -0.6206   -0.8560    0.0000 C   0  0  0  0  0  0  0  0  0
   -0.6206   -0.0310    0.0000 C   0  0  0  0  0  0  0  0  0
   -1.3350    0.3815    0.0000 C   0  0  0  0  0  0  0  0  0
   -2.0495    0.7940    0.0000 F   0  0  0  0  0  0  0  0  0
   -0.9225    1.0960    0.0000 F   0  0  0  0  0  0  0  0  0
   -1.7475   -0.3329    0.0000 F   0  0  0  0  0  0  0  0  0
    0.0939    0.3815    0.0000 C   0  0  0  0  0  0  0  0  0
    0.0939    1.2065    0.0000 C   0  0  0  0  0  0  0  0  0
    0.8084    1.6190    0.0000 N   0  0  0  0  0  0  0  0  0
    1.5229    1.2065    0.0000 C   0  0  0  0  0  0  0  0  0
    2.2373    1.6190    0.0000 C   0  0  0  0  0  0  0  0  0
    2.2373    2.4440    0.0000 C   0  0  0  0  0  0  0  0  0
    2.9518    1.2065    0.0000 C   0  0  0  0  0  0  0  0  0
    0.8084    2.4440    0.0000 C   0  0  0  0  0  0  0  0  0
    0.0939    2.8565    0.0000 C   0  0  0  0  0  0  0  0  0
    0.0939    3.6815    0.0000 C   0  0  0  0  0  0  0  0  0
    0.8084    4.0940    0.0000 N   0  0  0  0  0  0  0  0  0
    1.5229    3.6815    0.0000 C   0  0  0  0  0  0  0  0  0
    1.5229    2.8565    0.0000 C   0  0  0  0  0  0  0  0  0
  1  2  1  0  0  0  0
  2  3  4  0  0  0  0
  2 11  4  0  0  0  0
  3  4  4  0  0  0  0
  4  5  4  0  0  0  0
  5  6  4  0  0  0  0
  6  7  1  0  0  0  0
  6 11  4  0  0  0  0
  7  8  1  0  0  0  0
  7  9  1  0  0  0  0
  7 10  1  0  0  0  0
 11 12  1  0  0  0  0
 12 13  1  0  0  0  0
 13 14  1  0  0  0  0
 13 18  1  0  0  0  0
 14 15  1  0  0  0  0
 15 16  1  0  0  0  0
 15 17  1  0  0  0  0
 18 19  1  0  0  0  0
 18 23  1  0  0  0  0
 19 20  1  0  0  0  0
 20 21  1  0  0  0  0
 21 22  1  0  0  0  0
 22 23  1  0  0  0  0
M  END
>  <Name_Molregno>
347109

>  <Norepinephrine transporter>
8.22

>  <Serotonin transporter>
8.39

$$$$
347110
  Marvin  02231216192D 0   1.00000     0.00000     0

 21 22  0  0  0  0  0  0  0  0999 V2000
   -4.5864   -0.6308    0.0000 F   0  0  0  0  0  0  0  0  0
   -3.8719   -0.2183    0.0000 C   0  0  0  0  0  0  0  0  0
   -3.1575   -0.6308    0.0000 C   0  0  0  0  0  0  0  0  0
   -2.4430   -0.2183    0.0000 C   0  0  0  0  0  0  0  0  0
   -1.7285   -0.6308    0.0000 C   0  0  0  0  0  0  0  0  0
   -1.7285   -1.4558    0.0000 N   0  0  0  0  0  0  0  0  0
   -1.0141   -1.8683    0.0000 C   0  0  0  0  0  0  0  0  0
   -0.2996   -1.4558    0.0000 C   0  0  0  0  0  0  0  0  0
   -0.2996   -0.6308    0.0000 C   0  0  0  0  0  0  0  0  0
    0.4149   -1.8683    0.0000 C   0  0  0  0  0  0  0  0  0
   -2.4430   -1.8683    0.0000 C   0  0  0  0  0  0  0  0  0
   -2.4430   -2.6933    0.0000 C   0  0  0  0  0  0  0  0  0
   -3.1575   -3.1058    0.0000 C   0  0  0  0  0  0  0  0  0
   -3.8719   -2.6933    0.0000 N   0  0  0  0  0  0  0  0  0
   -3.8719   -1.8683    0.0000 C   0  0  0  0  0  0  0  0  0
   -3.1575   -1.4558    0.0000 C   0  0  0  0  0  0  0  0  0
   -2.4430    0.6067    0.0000 C   0  0  0  0  0  0  0  0  0
   -1.7285    1.0192    0.0000 O   0  0  0  0  0  0  0  0  0
   -1.7285    1.8442    0.0000 C   0  0  0  0  0  0  0  0  0
   -3.1575    1.0192    0.0000 C   0  0  0  0  0  0  0  0  0
   -3.8719    0.6067    0.0000 C   0  0  0  0  0  0  0  0  0
  1  2  1  0  0  0  0
  2  3  4  0  0  0  0
  2 21  4  0  0  0  0
  3  4  4  0  0  0  0
  4  5  1  0  0  0  0
  4 17  4  0  0  0  0
  5  6  1  0  0  0  0
  6  7  1  0  0  0  0
  6 11  1  0  0  0  0
  7  8  1  0  0  0  0
  8  9  1  0  0  0  0
  8 10  1  0  0  0  0
 11 12  1  0  0  0  0
 11 16  1  0  0  0  0
 12 13  1  0  0  0  0
 13 14  1  0  0  0  0
 14 15  1  0  0  0  0
 15 16  1  0  0  0  0
 17 18  1  0  0  0  0
 17 20  4  0  0  0  0
 18 19  1  0  0  0  0
 20 21  4  0  0  0  0
M  END
>  <Name_Molregno>
347110

>  <Norepinephrine transporter>
7.38

>  <Serotonin transporter>
8.85

$$$$
347116
  Marvin  02231216192D 0   1.00000     0.00000     0

 20 21  0  0  0  0  0  0  0  0999 V2000
   -0.9887    0.6306    0.0000 Cl  0  0  0  0  0  0  0  0  0
   -1.7032    0.2181    0.0000 C   0  0  0  0  0  0  0  0  0
   -2.4177    0.6306    0.0000 C   0  0  0  0  0  0  0  0  0
   -3.1321    0.2181    0.0000 C   0  0  0  0  0  0  0  0  0
   -3.8466    0.6306    0.0000 Cl  0  0  0  0  0  0  0  0  0
   -3.1321   -0.6069    0.0000 C   0  0  0  0  0  0  0  0  0
   -2.4177   -1.0194    0.0000 C   0  0  0  0  0  0  0  0  0
   -1.7032   -0.6069    0.0000 C   0  0  0  0  0  0  0  0  0
   -0.9887   -1.0194    0.0000 C   0  0  0  0  0  0  0  0  0
   -0.9887   -1.8444    0.0000 N   0  0  0  0  0  0  0  0  0
   -0.2743   -2.2569    0.0000 C   0  0  0  0  0  0  0  0  0
    0.4402   -1.8444    0.0000 C   0  0  0  0  0  0  0  0  0
    0.4402   -1.0194    0.0000 C   0  0  0  0  0  0  0  0  0
    1.1547   -2.2569    0.0000 C   0  0  0  0  0  0  0  0  0
   -1.7032   -2.2569    0.0000 C   0  0  0  0  0  0  0  0  0
   -1.7032   -3.0819    0.0000 C   0  0  0  0  0  0  0  0  0
   -2.4177   -3.4944    0.0000 C   0  0  0  0  0  0  0  0  0
   -3.1321   -3.0819    0.0000 N   0  0  0  0  0  0  0  0  0
   -3.1321   -2.2569    0.0000 C   0  0  0  0  0  0  0  0  0
   -2.4177   -1.8444    0.0000 C   0  0  0  0  0  0  0  0  0
  1  2  1  0  0  0  0
  2  3  4  0  0  0  0
  2  8  4  0  0  0  0
  3  4  4  0  0  0  0
  4  5  1  0  0  0  0
  4  6  4  0  0  0  0
  6  7  4  0  0  0  0
  7  8  4  0  0  0  0
  8  9  1  0  0  0  0
  9 10  1  0  0  0  0
 10 11  1  0  0  0  0
 10 15  1  0  0  0  0
 11 12  1  0  0  0  0
 12 13  1  0  0  0  0
 12 14  1  0  0  0  0
 15 16  1  0  0  0  0
 15 20  1  0  0  0  0
 16 17  1  0  0  0  0
 17 18  1  0  0  0  0
 18 19  1  0  0  0  0
 19 20  1  0  0  0  0
M  END
>  <Name_Molregno>
347116

>  <Dopamine transporter>
6.64

>  <Norepinephrine transporter>
8.7

>  <Serotonin transporter>
9.02

$$$$
347117
  Marvin  02231216192D 0   1.00000     0.00000     0

 23 24  0  0  0  0  0  0  0  0999 V2000
    2.0232    0.3612    0.0000 Cl  0  0  0  0  0  0  0  0  0
    1.3087   -0.0513    0.0000 C   0  0  0  0  0  0  0  0  0
    1.3087   -0.8763    0.0000 C   0  0  0  0  0  0  0  0  0
    0.5943   -1.2888    0.0000 C   0  0  0  0  0  0  0  0  0
   -0.1202   -0.8763    0.0000 C   0  0  0  0  0  0  0  0  0
   -0.1202   -0.0513    0.0000 C   0  0  0  0  0  0  0  0  0
    0.5943    0.3612    0.0000 C   0  0  0  0  0  0  0  0  0
    0.5943    1.1862    0.0000 C   0  0  0  0  0  0  0  0  0
    0.5943    2.0112    0.0000 F   0  0  0  0  0  0  0  0  0
   -0.2307    1.1862    0.0000 F   0  0  0  0  0  0  0  0  0
    1.4193    1.1862    0.0000 F   0  0  0  0  0  0  0  0  0
    2.0232   -1.2888    0.0000 C   0  0  0  0  0  0  0  0  0
    2.0232   -2.1138    0.0000 N   0  0  0  0  0  0  0  0  0
    2.7377   -2.5263    0.0000 C   0  0  0  0  0  0  0  0  0
    3.4522   -2.1138    0.0000 C   0  0  0  0  0  0  0  0  0
    3.4522   -1.2888    0.0000 C   0  0  0  0  0  0  0  0  0
    4.1666   -2.5263    0.0000 C   0  0  0  0  0  0  0  0  0
    1.3087   -2.5263    0.0000 C   0  0  0  0  0  0  0  0  0
    1.3087   -3.3513    0.0000 C   0  0  0  0  0  0  0  0  0
    0.5943   -3.7638    0.0000 C   0  0  0  0  0  0  0  0  0
   -0.1202   -3.3513    0.0000 N   0  0  0  0  0  0  0  0  0
   -0.1202   -2.5263    0.0000 C   0  0  0  0  0  0  0  0  0
    0.5943   -2.1138    0.0000 C   0  0  0  0  0  0  0  0  0
  1  2  1  0  0  0  0
  2  3  4  0  0  0  0
  2  7  4  0  0  0  0
  3  4  4  0  0  0  0
  3 12  1  0  0  0  0
  4  5  4  0  0  0  0
  5  6  4  0  0  0  0
  6  7  4  0  0  0  0
  7  8  1  0  0  0  0
  8  9  1  0  0  0  0
  8 10  1  0  0  0  0
  8 11  1  0  0  0  0
 12 13  1  0  0  0  0
 13 14  1  0  0  0  0
 13 18  1  0  0  0  0
 14 15  1  0  0  0  0
 15 16  1  0  0  0  0
 15 17  1  0  0  0  0
 18 19  1  0  0  0  0
 18 23  1  0  0  0  0
 19 20  1  0  0  0  0
 20 21  1  0  0  0  0
 21 22  1  0  0  0  0
 22 23  1  0  0  0  0
M  END
>  <Name_Molregno>
347117

>  <Norepinephrine transporter>
6.38

>  <Serotonin transporter>
9.32

$$$$
347118
  Marvin  02231216192D 0   1.00000     0.00000     0

 23 24  0  0  0  0  0  0  0  0999 V2000
    0.8781    1.9557    0.0000 F   0  0  0  0  0  0  0  0  0
    1.5926    1.5432    0.0000 C   0  0  0  0  0  0  0  0  0
    2.3071    1.9557    0.0000 C   0  0  0  0  0  0  0  0  0
    3.0215    1.5432    0.0000 C   0  0  0  0  0  0  0  0  0
    3.7360    1.9557    0.0000 C   0  0  0  0  0  0  0  0  0
    4.4505    2.3682    0.0000 F   0  0  0  0  0  0  0  0  0
    4.1485    1.2412    0.0000 F   0  0  0  0  0  0  0  0  0
    3.3235    2.6702    0.0000 F   0  0  0  0  0  0  0  0  0
    3.0215    0.7182    0.0000 C   0  0  0  0  0  0  0  0  0
    2.3071    0.3057    0.0000 C   0  0  0  0  0  0  0  0  0
    1.5926    0.7182    0.0000 C   0  0  0  0  0  0  0  0  0
    3.7360    0.3057    0.0000 C   0  0  0  0  0  0  0  0  0
    3.7360   -0.5193    0.0000 N   0  0  0  0  0  0  0  0  0
    4.4505   -0.9318    0.0000 C   0  0  0  0  0  0  0  0  0
    5.1649   -0.5193    0.0000 C   0  0  0  0  0  0  0  0  0
    5.1649    0.3057    0.0000 C   0  0  0  0  0  0  0  0  0
    5.8794   -0.9318    0.0000 C   0  0  0  0  0  0  0  0  0
    3.0215   -0.9318    0.0000 C   0  0  0  0  0  0  0  0  0
    3.0215   -1.7568    0.0000 C   0  0  0  0  0  0  0  0  0
    2.3071   -2.1693    0.0000 C   0  0  0  0  0  0  0  0  0
    1.5926   -1.7568    0.0000 N   0  0  0  0  0  0  0  0  0
    1.5926   -0.9318    0.0000 C   0  0  0  0  0  0  0  0  0
    2.3071   -0.5193    0.0000 C   0  0  0  0  0  0  0  0  0
  1  2  1  0  0  0  0
  2  3  4  0  0  0  0
  2 11  4  0  0  0  0
  3  4  4  0  0  0  0
  4  5  1  0  0  0  0
  4  9  4  0  0  0  0
  5  6  1  0  0  0  0
  5  7  1  0  0  0  0
  5  8  1  0  0  0  0
  9 10  4  0  0  0  0
  9 12  1  0  0  0  0
 10 11  4  0  0  0  0
 12 13  1  0  0  0  0
 13 14  1  0  0  0  0
 13 18  1  0  0  0  0
 14 15  1  0  0  0  0
 15 16  1  0  0  0  0
 15 17  1  0  0  0  0
 18 19  1  0  0  0  0
 18 23  1  0  0  0  0
 19 20  1  0  0  0  0
 20 21  1  0  0  0  0
 21 22  1  0  0  0  0
 22 23  1  0  0  0  0
M  END
>  <Name_Molregno>
347118

>  <Dopamine transporter>
6.72

>  <Norepinephrine transporter>
8.74

>  <Serotonin transporter>
9.52

$$$$
347119
  Marvin  02231216192D 0   1.00000     0.00000     0

 24 25  0  0  0  0  0  0  0  0999 V2000
   -0.9364   -3.4138    0.0000 F   0  0  0  0  0  0  0  0  0
   -0.2219   -3.0013    0.0000 C   0  0  0  0  0  0  0  0  0
   -0.2219   -2.1762    0.0000 C   0  0  0  0  0  0  0  0  0
    0.4926   -1.7637    0.0000 C   0  0  0  0  0  0  0  0  0
    0.4926   -0.9387    0.0000 C   0  0  0  0  0  0  0  0  0
    0.4926   -0.1137    0.0000 F   0  0  0  0  0  0  0  0  0
    1.3176   -0.9387    0.0000 F   0  0  0  0  0  0  0  0  0
   -0.3324   -0.9387    0.0000 F   0  0  0  0  0  0  0  0  0
    1.2070   -2.1762    0.0000 C   0  0  0  0  0  0  0  0  0
    1.2070   -3.0012    0.0000 C   0  0  0  0  0  0  0  0  0
    0.4926   -3.4137    0.0000 C   0  0  0  0  0  0  0  0  0
    1.9215   -1.7637    0.0000 C   0  0  0  0  0  0  0  0  0
    2.6360   -2.1762    0.0000 N   0  0  0  0  0  0  0  0  0
    3.3505   -1.7637    0.0000 C   0  0  0  0  0  0  0  0  0
    4.0649   -2.1763    0.0000 C   0  0  0  0  0  0  0  0  0
    4.7794   -1.7637    0.0000 C   0  0  0  0  0  0  0  0  0
    5.4939   -2.1763    0.0000 O   0  0  0  0  0  0  0  0  0
    6.2083   -1.7638    0.0000 C   0  0  0  0  0  0  0  0  0
    2.6360   -3.0012    0.0000 C   0  0  0  0  0  0  0  0  0
    3.3505   -3.4138    0.0000 C   0  0  0  0  0  0  0  0  0
    3.3505   -4.2388    0.0000 C   0  0  0  0  0  0  0  0  0
    2.6360   -4.6513    0.0000 N   0  0  0  0  0  0  0  0  0
    1.9215   -4.2387    0.0000 C   0  0  0  0  0  0  0  0  0
    1.9215   -3.4137    0.0000 C   0  0  0  0  0  0  0  0  0
  1  2  1  0  0  0  0
  2  3  4  0  0  0  0
  2 11  4  0  0  0  0
  3  4  4  0  0  0  0
  4  5  1  0  0  0  0
  4  9  4  0  0  0  0
  5  6  1  0  0  0  0
  5  7  1  0  0  0  0
  5  8  1  0  0  0  0
  9 10  4  0  0  0  0
  9 12  1  0  0  0  0
 10 11  4  0  0  0  0
 12 13  1  0  0  0  0
 13 14  1  0  0  0  0
 13 19  1  0  0  0  0
 14 15  1  0  0  0  0
 15 16  1  0  0  0  0
 16 17  1  0  0  0  0
 17 18  1  0  0  0  0
 19 20  1  0  0  0  0
 19 24  1  0  0  0  0
 20 21  1  0  0  0  0
 21 22  1  0  0  0  0
 22 23  1  0  0  0  0
 23 24  1  0  0  0  0
M  END
>  <Name_Molregno>
347119

>  <Norepinephrine transporter>
8.27

>  <Serotonin transporter>
8.96

$$$$
347124
  Marvin  02231216192D 0   1.00000     0.00000     0

 20 21  0  0  0  0  0  0  0  0999 V2000
   -0.1522   -0.0305    0.0000 Cl  0  0  0  0  0  0  0  0  0
   -0.8667   -0.4430    0.0000 C   0  0  0  0  0  0  0  0  0
   -1.5811   -0.0305    0.0000 C   0  0  0  0  0  0  0  0  0
   -2.2956   -0.4430    0.0000 C   0  0  0  0  0  0  0  0  0
   -2.2956   -1.2680    0.0000 C   0  0  0  0  0  0  0  0  0
   -3.0101   -1.6805    0.0000 Cl  0  0  0  0  0  0  0  0  0
   -1.5811   -1.6805    0.0000 C   0  0  0  0  0  0  0  0  0
   -0.8667   -1.2680    0.0000 C   0  0  0  0  0  0  0  0  0
   -0.1522   -1.6805    0.0000 C   0  0  0  0  0  0  0  0  0
   -0.1522   -2.5055    0.0000 N   0  0  0  0  0  0  0  0  0
    0.5623   -2.9180    0.0000 C   0  0  0  0  0  0  0  0  0
    1.2767   -2.5055    0.0000 C   0  0  0  0  0  0  0  0  0
    1.2767   -1.6805    0.0000 C   0  0  0  0  0  0  0  0  0
    1.9912   -2.9180    0.0000 C   0  0  0  0  0  0  0  0  0
   -0.8667   -2.9180    0.0000 C   0  0  0  0  0  0  0  0  0
   -0.8667   -3.7430    0.0000 C   0  0  0  0  0  0  0  0  0
   -1.5811   -4.1555    0.0000 C   0  0  0  0  0  0  0  0  0
   -2.2956   -3.7430    0.0000 N   0  0  0  0  0  0  0  0  0
   -2.2956   -2.9180    0.0000 C   0  0  0  0  0  0  0  0  0
   -1.5811   -2.5055    0.0000 C   0  0  0  0  0  0  0  0  0
  1  2  1  0  0  0  0
  2  3  4  0  0  0  0
  2  8  4  0  0  0  0
  3  4  4  0  0  0  0
  4  5  4  0  0  0  0
  5  6  1  0  0  0  0
  5  7  4  0  0  0  0
  7  8  4  0  0  0  0
  8  9  1  0  0  0  0
  9 10  1  0  0  0  0
 10 11  1  0  0  0  0
 10 15  1  0  0  0  0
 11 12  1  0  0  0  0
 12 13  1  0  0  0  0
 12 14  1  0  0  0  0
 15 16  1  0  0  0  0
 15 20  1  0  0  0  0
 16 17  1  0  0  0  0
 17 18  1  0  0  0  0
 18 19  1  0  0  0  0
 19 20  1  0  0  0  0
M  END
>  <Name_Molregno>
347124

>  <Norepinephrine transporter>
8.26

>  <Serotonin transporter>
8.68

$$$$
347127
  Marvin  02231216192D 0   1.00000     0.00000     0

 24 25  0  0  0  0  0  0  0  0999 V2000
   -0.9364   -3.4138    0.0000 F   0  0  0  0  0  0  0  0  0
   -0.2219   -3.0013    0.0000 C   0  0  0  0  0  0  0  0  0
   -0.2219   -2.1762    0.0000 C   0  0  0  0  0  0  0  0  0
    0.4926   -1.7637    0.0000 C   0  0  0  0  0  0  0  0  0
    0.4926   -0.9387    0.0000 C   0  0  0  0  0  0  0  0  0
    0.4926   -0.1137    0.0000 F   0  0  0  0  0  0  0  0  0
    1.3176   -0.9387    0.0000 F   0  0  0  0  0  0  0  0  0
   -0.3324   -0.9387    0.0000 F   0  0  0  0  0  0  0  0  0
    1.2070   -2.1762    0.0000 C   0  0  0  0  0  0  0  0  0
    1.2070   -3.0012    0.0000 C   0  0  0  0  0  0  0  0  0
    0.4926   -3.4137    0.0000 C   0  0  0  0  0  0  0  0  0
    1.9215   -1.7637    0.0000 C   0  0  0  0  0  0  0  0  0
    2.6360   -2.1762    0.0000 N   0  0  0  0  0  0  0  0  0
    3.3505   -1.7637    0.0000 C   0  0  0  0  0  0  0  0  0
    4.0649   -2.1763    0.0000 C   0  0  0  0  0  0  0  0  0
    4.7794   -1.7637    0.0000 O   0  0  0  0  0  0  0  0  0
    5.4939   -2.1763    0.0000 C   0  0  0  0  0  0  0  0  0
    6.2083   -1.7638    0.0000 C   0  0  0  0  0  0  0  0  0
    2.6360   -3.0012    0.0000 C   0  0  0  0  0  0  0  0  0
    3.3505   -3.4138    0.0000 C   0  0  0  0  0  0  0  0  0
    3.3505   -4.2388    0.0000 C   0  0  0  0  0  0  0  0  0
    2.6360   -4.6513    0.0000 N   0  0  0  0  0  0  0  0  0
    1.9215   -4.2387    0.0000 C   0  0  0  0  0  0  0  0  0
    1.9215   -3.4137    0.0000 C   0  0  0  0  0  0  0  0  0
  1  2  1  0  0  0  0
  2  3  4  0  0  0  0
  2 11  4  0  0  0  0
  3  4  4  0  0  0  0
  4  5  1  0  0  0  0
  4  9  4  0  0  0  0
  5  6  1  0  0  0  0
  5  7  1  0  0  0  0
  5  8  1  0  0  0  0
  9 10  4  0  0  0  0
  9 12  1  0  0  0  0
 10 11  4  0  0  0  0
 12 13  1  0  0  0  0
 13 14  1  0  0  0  0
 13 19  1  0  0  0  0
 14 15  1  0  0  0  0
 15 16  1  0  0  0  0
 16 17  1  0  0  0  0
 17 18  1  0  0  0  0
 19 20  1  0  0  0  0
 19 24  1  0  0  0  0
 20 21  1  0  0  0  0
 21 22  1  0  0  0  0
 22 23  1  0  0  0  0
 23 24  1  0  0  0  0
M  END
>  <Name_Molregno>
347127

>  <Norepinephrine transporter>
8.02

>  <Serotonin transporter>
8.55

$$$$
347128
  Marvin  02231216192D 0   1.00000     0.00000     0

 25 26  0  0  0  0  0  0  0  0999 V2000
   -5.2240   -3.3789    0.0000 F   0  0  0  0  0  0  0  0  0
   -4.5095   -2.9664    0.0000 C   0  0  0  0  0  0  0  0  0
   -4.5095   -2.1414    0.0000 C   0  0  0  0  0  0  0  0  0
   -3.7951   -1.7289    0.0000 C   0  0  0  0  0  0  0  0  0
   -3.7951   -0.9039    0.0000 C   0  0  0  0  0  0  0  0  0
   -3.7951   -0.0789    0.0000 F   0  0  0  0  0  0  0  0  0
   -2.9701   -0.9039    0.0000 F   0  0  0  0  0  0  0  0  0
   -4.6201   -0.9039    0.0000 F   0  0  0  0  0  0  0  0  0
   -3.0806   -2.1414    0.0000 C   0  0  0  0  0  0  0  0  0
   -3.0806   -2.9664    0.0000 C   0  0  0  0  0  0  0  0  0
   -3.7951   -3.3789    0.0000 C   0  0  0  0  0  0  0  0  0
   -2.3661   -1.7289    0.0000 C   0  0  0  0  0  0  0  0  0
   -1.6517   -2.1414    0.0000 N   0  0  0  0  0  0  0  0  0
   -0.9372   -1.7289    0.0000 C   0  0  0  0  0  0  0  0  0
   -0.2227   -2.1414    0.0000 C   0  0  0  0  0  0  0  0  0
    0.4918   -1.7289    0.0000 O   0  0  0  0  0  0  0  0  0
    1.2062   -2.1414    0.0000 C   0  0  0  0  0  0  0  0  0
    1.9207   -1.7289    0.0000 C   0  0  0  0  0  0  0  0  0
    1.2062   -2.9664    0.0000 C   0  0  0  0  0  0  0  0  0
   -1.6517   -2.9664    0.0000 C   0  0  0  0  0  0  0  0  0
   -0.9372   -3.3789    0.0000 C   0  0  0  0  0  0  0  0  0
   -0.9372   -4.2039    0.0000 C   0  0  0  0  0  0  0  0  0
   -1.6517   -4.6164    0.0000 N   0  0  0  0  0  0  0  0  0
   -2.3661   -4.2039    0.0000 C   0  0  0  0  0  0  0  0  0
   -2.3661   -3.3789    0.0000 C   0  0  0  0  0  0  0  0  0
  1  2  1  0  0  0  0
  2  3  4  0  0  0  0
  2 11  4  0  0  0  0
  3  4  4  0  0  0  0
  4  5  1  0  0  0  0
  4  9  4  0  0  0  0
  5  6  1  0  0  0  0
  5  7  1  0  0  0  0
  5  8  1  0  0  0  0
  9 10  4  0  0  0  0
  9 12  1  0  0  0  0
 10 11  4  0  0  0  0
 12 13  1  0  0  0  0
 13 14  1  0  0  0  0
 13 20  1  0  0  0  0
 14 15  1  0  0  0  0
 15 16  1  0  0  0  0
 16 17  1  0  0  0  0
 17 18  1  0  0  0  0
 17 19  1  0  0  0  0
 20 21  1  0  0  0  0
 20 25  1  0  0  0  0
 21 22  1  0  0  0  0
 22 23  1  0  0  0  0
 23 24  1  0  0  0  0
 24 25  1  0  0  0  0
M  END
>  <Name_Molregno>
347128

>  <Norepinephrine transporter>
8.01

>  <Serotonin transporter>
8.52

$$$$
347133
  Marvin  02231216192D 0   1.00000     0.00000     0

 23 24  0  0  0  0  0  0  0  0999 V2000
    0.0786   -2.2114    0.0000 F   0  0  0  0  0  0  0  0  0
    0.7930   -1.7989    0.0000 C   0  0  0  0  0  0  0  0  0
    0.7930   -0.9739    0.0000 C   0  0  0  0  0  0  0  0  0
    1.5075   -0.5614    0.0000 C   0  0  0  0  0  0  0  0  0
    1.5075    0.2636    0.0000 C   0  0  0  0  0  0  0  0  0
    1.5075    1.0886    0.0000 F   0  0  0  0  0  0  0  0  0
    2.3325    0.2636    0.0000 F   0  0  0  0  0  0  0  0  0
    0.6825    0.2636    0.0000 F   0  0  0  0  0  0  0  0  0
    2.2220   -0.9739    0.0000 C   0  0  0  0  0  0  0  0  0
    2.2220   -1.7989    0.0000 C   0  0  0  0  0  0  0  0  0
    1.5075   -2.2114    0.0000 C   0  0  0  0  0  0  0  0  0
    2.9364   -0.5614    0.0000 C   0  0  0  0  0  0  0  0  0
    3.6509   -0.9739    0.0000 N   0  0  0  0  0  0  0  0  0
    4.3654   -0.5614    0.0000 C   0  0  0  0  0  0  0  0  0
    5.0799   -0.9739    0.0000 C   0  0  0  0  0  0  0  0  0
    5.7943   -0.5614    0.0000 C   0  0  0  0  0  0  0  0  0
    6.5088   -0.1489    0.0000 N   0  0  0  0  0  0  0  0  0
    3.6509   -1.7989    0.0000 C   0  0  0  0  0  0  0  0  0
    4.3654   -2.2114    0.0000 C   0  0  0  0  0  0  0  0  0
    4.3654   -3.0364    0.0000 C   0  0  0  0  0  0  0  0  0
    3.6509   -3.4489    0.0000 N   0  0  0  0  0  0  0  0  0
    2.9364   -3.0364    0.0000 C   0  0  0  0  0  0  0  0  0
    2.9364   -2.2114    0.0000 C   0  0  0  0  0  0  0  0  0
  1  2  1  0  0  0  0
  2  3  4  0  0  0  0
  2 11  4  0  0  0  0
  3  4  4  0  0  0  0
  4  5  1  0  0  0  0
  4  9  4  0  0  0  0
  5  6  1  0  0  0  0
  5  7  1  0  0  0  0
  5  8  1  0  0  0  0
  9 10  4  0  0  0  0
  9 12  1  0  0  0  0
 10 11  4  0  0  0  0
 12 13  1  0  0  0  0
 13 14  1  0  0  0  0
 13 18  1  0  0  0  0
 14 15  1  0  0  0  0
 15 16  1  0  0  0  0
 16 17  3  0  0  0  0
 18 19  1  0  0  0  0
 18 23  1  0  0  0  0
 19 20  1  0  0  0  0
 20 21  1  0  0  0  0
 21 22  1  0  0  0  0
 22 23  1  0  0  0  0
M  END
>  <Name_Molregno>
347133

>  <Norepinephrine transporter>
7.88

>  <Serotonin transporter>
9.4

$$$$
347134
  Marvin  02231216192D 0   1.00000     0.00000     0

 24 25  0  0  0  0  0  0  0  0999 V2000
   -0.9084   -1.5085    0.0000 F   0  0  0  0  0  0  0  0  0
   -0.1939   -1.9210    0.0000 C   0  0  0  0  0  0  0  0  0
   -0.1939   -2.7460    0.0000 C   0  0  0  0  0  0  0  0  0
    0.5206   -3.1585    0.0000 C   0  0  0  0  0  0  0  0  0
    0.5206   -3.9835    0.0000 C   0  0  0  0  0  0  0  0  0
    0.5206   -4.8085    0.0000 F   0  0  0  0  0  0  0  0  0
    1.3456   -3.9835    0.0000 F   0  0  0  0  0  0  0  0  0
   -0.3044   -3.9835    0.0000 F   0  0  0  0  0  0  0  0  0
    1.2351   -2.7460    0.0000 C   0  0  0  0  0  0  0  0  0
    1.2351   -1.9210    0.0000 C   0  0  0  0  0  0  0  0  0
    0.5206   -1.5085    0.0000 C   0  0  0  0  0  0  0  0  0
    1.9495   -3.1585    0.0000 C   0  0  0  0  0  0  0  0  0
    2.6640   -2.7460    0.0000 N   0  0  0  0  0  0  0  0  0
    3.3785   -3.1585    0.0000 C   0  0  0  0  0  0  0  0  0
    4.0929   -2.7460    0.0000 C   0  0  0  0  0  0  0  0  0
    4.8074   -3.1585    0.0000 C   0  0  0  0  0  0  0  0  0
    5.5219   -2.7460    0.0000 C   0  0  0  0  0  0  0  0  0
    6.2364   -2.3335    0.0000 N   0  0  0  0  0  0  0  0  0
    2.6640   -1.9210    0.0000 C   0  0  0  0  0  0  0  0  0
    1.9495   -1.5085    0.0000 C   0  0  0  0  0  0  0  0  0
    1.9495   -0.6835    0.0000 C   0  0  0  0  0  0  0  0  0
    2.6640   -0.2710    0.0000 N   0  0  0  0  0  0  0  0  0
    3.3785   -0.6835    0.0000 C   0  0  0  0  0  0  0  0  0
    3.3785   -1.5085    0.0000 C   0  0  0  0  0  0  0  0  0
  1  2  1  0  0  0  0
  2  3  4  0  0  0  0
  2 11  4  0  0  0  0
  3  4  4  0  0  0  0
  4  5  1  0  0  0  0
  4  9  4  0  0  0  0
  5  6  1  0  0  0  0
  5  7  1  0  0  0  0
  5  8  1  0  0  0  0
  9 10  4  0  0  0  0
  9 12  1  0  0  0  0
 10 11  4  0  0  0  0
 12 13  1  0  0  0  0
 13 14  1  0  0  0  0
 13 19  1  0  0  0  0
 14 15  1  0  0  0  0
 15 16  1  0  0  0  0
 16 17  1  0  0  0  0
 17 18  3  0  0  0  0
 19 20  1  0  0  0  0
 19 24  1  0  0  0  0
 20 21  1  0  0  0  0
 21 22  1  0  0  0  0
 22 23  1  0  0  0  0
 23 24  1  0  0  0  0
M  END
>  <Name_Molregno>
347134

>  <Norepinephrine transporter>
7.88

>  <Serotonin transporter>
9.4

$$$$
347139
  Marvin  02231216192D 0   1.00000     0.00000     0

 25 26  0  0  0  0  0  0  0  0999 V2000
   -0.5348   -0.7886    0.0000 F   0  0  0  0  0  0  0  0  0
    0.0373   -1.3831    0.0000 C   0  0  0  0  0  0  0  0  0
   -0.1916   -2.1757    0.0000 C   0  0  0  0  0  0  0  0  0
    0.3805   -2.7702    0.0000 C   0  0  0  0  0  0  0  0  0
    0.1517   -3.5629    0.0000 C   0  0  0  0  0  0  0  0  0
   -0.0771   -4.3555    0.0000 F   0  0  0  0  0  0  0  0  0
    0.9443   -3.7917    0.0000 F   0  0  0  0  0  0  0  0  0
   -0.6410   -3.3340    0.0000 F   0  0  0  0  0  0  0  0  0
    1.1813   -2.5721    0.0000 C   0  0  0  0  0  0  0  0  0
    1.4101   -1.7794    0.0000 C   0  0  0  0  0  0  0  0  0
    0.8381   -1.1850    0.0000 C   0  0  0  0  0  0  0  0  0
    1.7534   -3.1665    0.0000 C   0  0  0  0  0  0  0  0  0
    2.5542   -2.9684    0.0000 N   0  0  0  0  0  0  0  0  0
    3.1262   -3.5629    0.0000 C   0  0  0  0  0  0  0  0  0
    3.9271   -3.3647    0.0000 C   0  0  0  0  0  0  0  0  0
    4.7279   -3.1665    0.0000 C   0  0  0  0  0  0  0  0  0
    5.5288   -2.9684    0.0000 N   0  0  0  0  0  0  0  0  0
    4.1253   -4.1655    0.0000 C   0  0  0  0  0  0  0  0  0
    3.7289   -2.5639    0.0000 C   0  0  0  0  0  0  0  0  0
    2.7830   -2.1757    0.0000 C   0  0  0  0  0  0  0  0  0
    2.2110   -1.5813    0.0000 C   0  0  0  0  0  0  0  0  0
    2.4398   -0.7886    0.0000 C   0  0  0  0  0  0  0  0  0
    3.2407   -0.5905    0.0000 N   0  0  0  0  0  0  0  0  0
    3.8127   -1.1850    0.0000 C   0  0  0  0  0  0  0  0  0
    3.5839   -1.9776    0.0000 C   0  0  0  0  0  0  0  0  0
  1  2  1  0  0  0  0
  2  3  4  0  0  0  0
  2 11  4  0  0  0  0
  3  4  4  0  0  0  0
  4  5  1  0  0  0  0
  4  9  4  0  0  0  0
  5  6  1  0  0  0  0
  5  7  1  0  0  0  0
  5  8  1  0  0  0  0
  9 10  4  0  0  0  0
  9 12  1  0  0  0  0
 10 11  4  0  0  0  0
 12 13  1  0  0  0  0
 13 14  1  0  0  0  0
 13 20  1  0  0  0  0
 14 15  1  0  0  0  0
 15 16  1  0  0  0  0
 15 18  1  0  0  0  0
 15 19  1  0  0  0  0
 16 17  3  0  0  0  0
 20 21  1  0  0  0  0
 20 25  1  0  0  0  0
 21 22  1  0  0  0  0
 22 23  1  0  0  0  0
 23 24  1  0  0  0  0
 24 25  1  0  0  0  0
M  END
>  <Name_Molregno>
347139

>  <Norepinephrine transporter>
7.8

>  <Serotonin transporter>
8.38

$$$$
347144
  Marvin  02231216192D 0   1.00000     0.00000     0

 22 23  0  0  0  0  0  0  0  0999 V2000
   -2.2738   -1.1942    0.0000 F   0  0  0  0  0  0  0  0  0
   -2.2738   -0.3692    0.0000 C   0  0  0  0  0  0  0  0  0
   -1.4488   -0.3692    0.0000 F   0  0  0  0  0  0  0  0  0
   -3.0988   -0.3692    0.0000 F   0  0  0  0  0  0  0  0  0
   -2.2738    0.4558    0.0000 C   0  0  0  0  0  0  0  0  0
   -2.9883    0.8683    0.0000 C   0  0  0  0  0  0  0  0  0
   -2.9883    1.6933    0.0000 C   0  0  0  0  0  0  0  0  0
   -2.2738    2.1058    0.0000 C   0  0  0  0  0  0  0  0  0
   -1.5594    1.6933    0.0000 C   0  0  0  0  0  0  0  0  0
   -1.5594    0.8683    0.0000 C   0  0  0  0  0  0  0  0  0
   -0.8449    0.4558    0.0000 C   0  0  0  0  0  0  0  0  0
   -0.1304    0.8683    0.0000 N   0  0  0  0  0  0  0  0  0
    0.5841    0.4558    0.0000 C   0  0  0  0  0  0  0  0  0
    1.2985    0.8683    0.0000 C   0  0  0  0  0  0  0  0  0
    2.0130    0.4558    0.0000 O   0  0  0  0  0  0  0  0  0
    2.7275    0.8683    0.0000 C   0  0  0  0  0  0  0  0  0
   -0.1304    1.6933    0.0000 C   0  0  0  0  0  0  0  0  0
   -0.8449    2.1058    0.0000 C   0  0  0  0  0  0  0  0  0
   -0.8449    2.9308    0.0000 C   0  0  0  0  0  0  0  0  0
   -0.1304    3.3433    0.0000 N   0  0  0  0  0  0  0  0  0
    0.5841    2.9308    0.0000 C   0  0  0  0  0  0  0  0  0
    0.5841    2.1058    0.0000 C   0  0  0  0  0  0  0  0  0
  1  2  1  0  0  0  0
  2  3  1  0  0  0  0
  2  4  1  0  0  0  0
  2  5  1  0  0  0  0
  5  6  4  0  0  0  0
  5 10  4  0  0  0  0
  6  7  4  0  0  0  0
  7  8  4  0  0  0  0
  8  9  4  0  0  0  0
  9 10  4  0  0  0  0
 10 11  1  0  0  0  0
 11 12  1  0  0  0  0
 12 13  1  0  0  0  0
 12 17  1  0  0  0  0
 13 14  1  0  0  0  0
 14 15  1  0  0  0  0
 15 16  1  0  0  0  0
 17 18  1  0  0  0  0
 17 22  1  0  0  0  0
 18 19  1  0  0  0  0
 19 20  1  0  0  0  0
 20 21  1  0  0  0  0
 21 22  1  0  0  0  0
M  END
>  <Name_Molregno>
347144

>  <Norepinephrine transporter>
8.08

>  <Serotonin transporter>
8.6

$$$$
347203
  Marvin  02231216192D 0   1.00000     0.00000     0

 23 24  0  0  0  0  0  0  0  0999 V2000
   -3.4371    1.6210    0.0000 F   0  0  0  0  0  0  0  0  0
   -2.7226    2.0335    0.0000 C   0  0  0  0  0  0  0  0  0
   -2.3101    1.3190    0.0000 F   0  0  0  0  0  0  0  0  0
   -3.1351    2.7479    0.0000 F   0  0  0  0  0  0  0  0  0
   -2.0082    2.4460    0.0000 C   0  0  0  0  0  0  0  0  0
   -2.0082    3.2710    0.0000 C   0  0  0  0  0  0  0  0  0
   -1.2937    3.6835    0.0000 C   0  0  0  0  0  0  0  0  0
   -0.5792    3.2710    0.0000 C   0  0  0  0  0  0  0  0  0
   -0.5792    2.4460    0.0000 C   0  0  0  0  0  0  0  0  0
   -1.2937    2.0335    0.0000 C   0  0  0  0  0  0  0  0  0
   -1.2937    1.2085    0.0000 C   0  0  0  0  0  0  0  0  0
   -0.5792    0.7960    0.0000 N   0  0  0  0  0  0  0  0  0
    0.1352    1.2085    0.0000 C   0  0  0  0  0  0  0  0  0
    0.8497    0.7960    0.0000 C   0  0  0  0  0  0  0  0  0
    0.4372    0.0815    0.0000 C   0  0  0  0  0  0  0  0  0
    1.2622    1.5104    0.0000 C   0  0  0  0  0  0  0  0  0
    1.5642    0.3835    0.0000 C   0  0  0  0  0  0  0  0  0
   -0.5792   -0.0290    0.0000 C   0  0  0  0  0  0  0  0  0
    0.1352   -0.4415    0.0000 C   0  0  0  0  0  0  0  0  0
    0.1352   -1.2665    0.0000 C   0  0  0  0  0  0  0  0  0
   -0.5792   -1.6790    0.0000 N   0  0  0  0  0  0  0  0  0
   -1.2937   -1.2665    0.0000 C   0  0  0  0  0  0  0  0  0
   -1.2937   -0.4415    0.0000 C   0  0  0  0  0  0  0  0  0
  1  2  1  0  0  0  0
  2  3  1  0  0  0  0
  2  4  1  0  0  0  0
  2  5  1  0  0  0  0
  5  6  4  0  0  0  0
  5 10  4  0  0  0  0
  6  7  4  0  0  0  0
  7  8  4  0  0  0  0
  8  9  4  0  0  0  0
  9 10  4  0  0  0  0
 10 11  1  0  0  0  0
 11 12  1  0  0  0  0
 12 13  1  0  0  0  0
 12 18  1  0  0  0  0
 13 14  1  0  0  0  0
 14 15  1  0  0  0  0
 14 16  1  0  0  0  0
 14 17  1  0  0  0  0
 18 19  1  0  0  0  0
 18 23  1  0  0  0  0
 19 20  1  0  0  0  0
 20 21  1  0  0  0  0
 21 22  1  0  0  0  0
 22 23  1  0  0  0  0
M  END
>  <Name_Molregno>
347203

>  <Dopamine transporter>
6.8

>  <Norepinephrine transporter>
8.57

>  <Serotonin transporter>
8.37

$$$$
347227
  Marvin  02231216192D 0   1.00000     0.00000     0

 24 25  0  0  0  0  0  0  0  0999 V2000
   -2.5698    3.5265    0.0000 F   0  0  0  0  0  0  0  0  0
   -2.5698    2.7015    0.0000 C   0  0  0  0  0  0  0  0  0
   -1.7448    2.7015    0.0000 F   0  0  0  0  0  0  0  0  0
   -3.3948    2.7015    0.0000 F   0  0  0  0  0  0  0  0  0
   -2.5698    1.8765    0.0000 C   0  0  0  0  0  0  0  0  0
   -3.2843    1.4640    0.0000 C   0  0  0  0  0  0  0  0  0
   -3.2843    0.6390    0.0000 C   0  0  0  0  0  0  0  0  0
   -2.5698    0.2265    0.0000 C   0  0  0  0  0  0  0  0  0
   -1.8553    0.6390    0.0000 C   0  0  0  0  0  0  0  0  0
   -1.8553    1.4640    0.0000 C   0  0  0  0  0  0  0  0  0
   -1.1409    1.8765    0.0000 C   0  0  0  0  0  0  0  0  0
   -0.4264    1.4640    0.0000 N   0  0  0  0  0  0  0  0  0
    0.2881    1.8765    0.0000 C   0  0  0  0  0  0  0  0  0
    1.0025    1.4640    0.0000 C   0  0  0  0  0  0  0  0  0
    1.7170    1.8765    0.0000 C   0  0  0  0  0  0  0  0  0
    2.4315    2.2890    0.0000 F   0  0  0  0  0  0  0  0  0
    2.1295    1.1621    0.0000 F   0  0  0  0  0  0  0  0  0
    1.3045    2.5910    0.0000 F   0  0  0  0  0  0  0  0  0
   -0.4264    0.6390    0.0000 C   0  0  0  0  0  0  0  0  0
    0.2881    0.2265    0.0000 C   0  0  0  0  0  0  0  0  0
    0.2881   -0.5985    0.0000 C   0  0  0  0  0  0  0  0  0
   -0.4264   -1.0110    0.0000 N   0  0  0  0  0  0  0  0  0
   -1.1409   -0.5985    0.0000 C   0  0  0  0  0  0  0  0  0
   -1.1409    0.2265    0.0000 C   0  0  0  0  0  0  0  0  0
  1  2  1  0  0  0  0
  2  3  1  0  0  0  0
  2  4  1  0  0  0  0
  2  5  1  0  0  0  0
  5  6  4  0  0  0  0
  5 10  4  0  0  0  0
  6  7  4  0  0  0  0
  7  8  4  0  0  0  0
  8  9  4  0  0  0  0
  9 10  4  0  0  0  0
 10 11  1  0  0  0  0
 11 12  1  0  0  0  0
 12 13  1  0  0  0  0
 12 19  1  0  0  0  0
 13 14  1  0  0  0  0
 14 15  1  0  0  0  0
 15 16  1  0  0  0  0
 15 17  1  0  0  0  0
 15 18  1  0  0  0  0
 19 20  1  0  0  0  0
 19 24  1  0  0  0  0
 20 21  1  0  0  0  0
 21 22  1  0  0  0  0
 22 23  1  0  0  0  0
 23 24  1  0  0  0  0
M  END
>  <Name_Molregno>
347227

>  <Norepinephrine transporter>
8.01

>  <Serotonin transporter>
8.55

$$$$
347228
  Marvin  02231216192D 0   1.00000     0.00000     0

 23 24  0  0  0  0  0  0  0  0999 V2000
    0.8482    1.0131    0.0000 F   0  0  0  0  0  0  0  0  0
    0.8482    0.1881    0.0000 C   0  0  0  0  0  0  0  0  0
    1.6732    0.1881    0.0000 F   0  0  0  0  0  0  0  0  0
    0.0232    0.1881    0.0000 F   0  0  0  0  0  0  0  0  0
    0.8482   -0.6369    0.0000 C   0  0  0  0  0  0  0  0  0
    0.1337   -1.0494    0.0000 C   0  0  0  0  0  0  0  0  0
    0.1337   -1.8744    0.0000 C   0  0  0  0  0  0  0  0  0
    0.8482   -2.2869    0.0000 C   0  0  0  0  0  0  0  0  0
    1.5626   -1.8744    0.0000 C   0  0  0  0  0  0  0  0  0
    1.5626   -1.0494    0.0000 C   0  0  0  0  0  0  0  0  0
    2.2771   -0.6369    0.0000 C   0  0  0  0  0  0  0  0  0
    2.9916   -1.0494    0.0000 N   0  0  0  0  0  0  0  0  0
    3.7060   -0.6369    0.0000 C   0  0  0  0  0  0  0  0  0
    4.4205   -1.0494    0.0000 C   0  0  0  0  0  0  0  0  0
    5.1350   -0.6369    0.0000 C   0  0  0  0  0  0  0  0  0
    5.8494   -1.0494    0.0000 O   0  0  0  0  0  0  0  0  0
    6.5639   -0.6369    0.0000 C   0  0  0  0  0  0  0  0  0
    2.9916   -1.8744    0.0000 C   0  0  0  0  0  0  0  0  0
    3.7060   -2.2869    0.0000 C   0  0  0  0  0  0  0  0  0
    3.7060   -3.1119    0.0000 C   0  0  0  0  0  0  0  0  0
    2.9916   -3.5244    0.0000 N   0  0  0  0  0  0  0  0  0
    2.2771   -3.1119    0.0000 C   0  0  0  0  0  0  0  0  0
    2.2771   -2.2869    0.0000 C   0  0  0  0  0  0  0  0  0
  1  2  1  0  0  0  0
  2  3  1  0  0  0  0
  2  4  1  0  0  0  0
  2  5  1  0  0  0  0
  5  6  4  0  0  0  0
  5 10  4  0  0  0  0
  6  7  4  0  0  0  0
  7  8  4  0  0  0  0
  8  9  4  0  0  0  0
  9 10  4  0  0  0  0
 10 11  1  0  0  0  0
 11 12  1  0  0  0  0
 12 13  1  0  0  0  0
 12 18  1  0  0  0  0
 13 14  1  0  0  0  0
 14 15  1  0  0  0  0
 15 16  1  0  0  0  0
 16 17  1  0  0  0  0
 18 19  1  0  0  0  0
 18 23  1  0  0  0  0
 19 20  1  0  0  0  0
 20 21  1  0  0  0  0
 21 22  1  0  0  0  0
 22 23  1  0  0  0  0
M  END
>  <Name_Molregno>
347228

>  <Norepinephrine transporter>
8.17

>  <Serotonin transporter>
8.66

$$$$
347342
  Marvin  02231216192D 0   1.00000     0.00000     0

 19 20  0  0  0  0  0  0  0  0999 V2000
   -0.4093    0.0348    0.0000 Cl  0  0  0  0  0  0  0  0  0
   -1.1238   -0.3777    0.0000 C   0  0  0  0  0  0  0  0  0
   -1.8382    0.0348    0.0000 C   0  0  0  0  0  0  0  0  0
   -2.5527   -0.3777    0.0000 C   0  0  0  0  0  0  0  0  0
   -2.5527   -1.2027    0.0000 C   0  0  0  0  0  0  0  0  0
   -1.8382   -1.6152    0.0000 C   0  0  0  0  0  0  0  0  0
   -1.1238   -1.2027    0.0000 C   0  0  0  0  0  0  0  0  0
   -0.4093   -1.6152    0.0000 C   0  0  0  0  0  0  0  0  0
   -0.4093   -2.4402    0.0000 N   0  0  0  0  0  0  0  0  0
    0.3052   -2.8527    0.0000 C   0  0  0  0  0  0  0  0  0
    1.0197   -2.4402    0.0000 C   0  0  0  0  0  0  0  0  0
    1.0197   -1.6152    0.0000 C   0  0  0  0  0  0  0  0  0
    1.7341   -2.8527    0.0000 C   0  0  0  0  0  0  0  0  0
   -1.1238   -2.8527    0.0000 C   0  0  0  0  0  0  0  0  0
   -1.1238   -3.6777    0.0000 C   0  0  0  0  0  0  0  0  0
   -1.8382   -4.0902    0.0000 C   0  0  0  0  0  0  0  0  0
   -2.5527   -3.6777    0.0000 N   0  0  0  0  0  0  0  0  0
   -2.5527   -2.8527    0.0000 C   0  0  0  0  0  0  0  0  0
   -1.8382   -2.4402    0.0000 C   0  0  0  0  0  0  0  0  0
  1  2  1  0  0  0  0
  2  3  4  0  0  0  0
  2  7  4  0  0  0  0
  3  4  4  0  0  0  0
  4  5  4  0  0  0  0
  5  6  4  0  0  0  0
  6  7  4  0  0  0  0
  7  8  1  0  0  0  0
  8  9  1  0  0  0  0
  9 10  1  0  0  0  0
  9 14  1  0  0  0  0
 10 11  1  0  0  0  0
 11 12  1  0  0  0  0
 11 13  1  0  0  0  0
 14 15  1  0  0  0  0
 14 19  1  0  0  0  0
 15 16  1  0  0  0  0
 16 17  1  0  0  0  0
 17 18  1  0  0  0  0
 18 19  1  0  0  0  0
M  END
>  <Name_Molregno>
347342

>  <Dopamine transporter>
7.08

>  <Norepinephrine transporter>
8.85

>  <Serotonin transporter>
8.8

$$$$
347343
  Marvin  02231216192D 0   1.00000     0.00000     0

 20 21  0  0  0  0  0  0  0  0999 V2000
   -0.3433    3.7808    0.0000 S   0  0  0  0  0  0  0  0  0
   -0.3433    4.6058    0.0000 C   0  0  0  0  0  0  0  0  0
   -1.0578    3.3683    0.0000 C   0  0  0  0  0  0  0  0  0
   -1.7723    3.7808    0.0000 C   0  0  0  0  0  0  0  0  0
   -2.4868    3.3683    0.0000 C   0  0  0  0  0  0  0  0  0
   -2.4868    2.5433    0.0000 C   0  0  0  0  0  0  0  0  0
   -1.7723    2.1308    0.0000 C   0  0  0  0  0  0  0  0  0
   -1.0578    2.5433    0.0000 C   0  0  0  0  0  0  0  0  0
   -0.3433    2.1308    0.0000 C   0  0  0  0  0  0  0  0  0
   -0.3433    1.3058    0.0000 N   0  0  0  0  0  0  0  0  0
    0.3711    0.8933    0.0000 C   0  0  0  0  0  0  0  0  0
    1.0856    1.3058    0.0000 C   0  0  0  0  0  0  0  0  0
    1.0856    2.1308    0.0000 C   0  0  0  0  0  0  0  0  0
    1.8001    0.8933    0.0000 C   0  0  0  0  0  0  0  0  0
   -1.0578    0.8933    0.0000 C   0  0  0  0  0  0  0  0  0
   -1.0578    0.0683    0.0000 C   0  0  0  0  0  0  0  0  0
   -1.7723   -0.3442    0.0000 C   0  0  0  0  0  0  0  0  0
   -2.4868    0.0683    0.0000 N   0  0  0  0  0  0  0  0  0
   -2.4868    0.8933    0.0000 C   0  0  0  0  0  0  0  0  0
   -1.7723    1.3058    0.0000 C   0  0  0  0  0  0  0  0  0
  1  2  1  0  0  0  0
  1  3  1  0  0  0  0
  3  4  4  0  0  0  0
  3  8  4  0  0  0  0
  4  5  4  0  0  0  0
  5  6  4  0  0  0  0
  6  7  4  0  0  0  0
  7  8  4  0  0  0  0
  8  9  1  0  0  0  0
  9 10  1  0  0  0  0
 10 11  1  0  0  0  0
 10 15  1  0  0  0  0
 11 12  1  0  0  0  0
 12 13  1  0  0  0  0
 12 14  1  0  0  0  0
 15 16  1  0  0  0  0
 15 20  1  0  0  0  0
 16 17  1  0  0  0  0
 17 18  1  0  0  0  0
 18 19  1  0  0  0  0
 19 20  1  0  0  0  0
M  END
>  <Name_Molregno>
347343

>  <Norepinephrine transporter>
8.48

>  <Serotonin transporter>
8.96

$$$$
347388
  Marvin  02231216192D 0   1.00000     0.00000     0

 23 24  0  0  0  0  0  0  0  0999 V2000
   -3.4001    1.6088    0.0000 F   0  0  0  0  0  0  0  0  0
   -2.6857    2.0213    0.0000 C   0  0  0  0  0  0  0  0  0
   -2.2732    1.3068    0.0000 F   0  0  0  0  0  0  0  0  0
   -3.0982    2.7357    0.0000 F   0  0  0  0  0  0  0  0  0
   -1.9712    2.4338    0.0000 C   0  0  0  0  0  0  0  0  0
   -1.9712    3.2588    0.0000 C   0  0  0  0  0  0  0  0  0
   -1.2567    3.6713    0.0000 C   0  0  0  0  0  0  0  0  0
   -0.5422    3.2588    0.0000 C   0  0  0  0  0  0  0  0  0
   -0.5422    2.4338    0.0000 C   0  0  0  0  0  0  0  0  0
   -1.2567    2.0213    0.0000 C   0  0  0  0  0  0  0  0  0
   -1.2567    1.1963    0.0000 C   0  0  0  0  0  0  0  0  0
   -0.5422    0.7838    0.0000 N   0  0  0  0  0  0  0  0  0
    0.1722    1.1963    0.0000 C   0  0  0  0  0  0  0  0  0
    0.8867    0.7838    0.0000 C   0  0  0  0  0  0  0  0  0
    0.4742    0.0693    0.0000 F   0  0  0  0  0  0  0  0  0
    1.2992    1.4982    0.0000 F   0  0  0  0  0  0  0  0  0
    1.6012    0.3713    0.0000 F   0  0  0  0  0  0  0  0  0
   -0.5422   -0.0412    0.0000 C   0  0  0  0  0  0  0  0  0
    0.1722   -0.4537    0.0000 C   0  0  0  0  0  0  0  0  0
    0.1722   -1.2787    0.0000 C   0  0  0  0  0  0  0  0  0
   -0.5422   -1.6912    0.0000 N   0  0  0  0  0  0  0  0  0
   -1.2567   -1.2787    0.0000 C   0  0  0  0  0  0  0  0  0
   -1.2567   -0.4537    0.0000 C   0  0  0  0  0  0  0  0  0
  1  2  1  0  0  0  0
  2  3  1  0  0  0  0
  2  4  1  0  0  0  0
  2  5  1  0  0  0  0
  5  6  4  0  0  0  0
  5 10  4  0  0  0  0
  6  7  4  0  0  0  0
  7  8  4  0  0  0  0
  8  9  4  0  0  0  0
  9 10  4  0  0  0  0
 10 11  1  0  0  0  0
 11 12  1  0  0  0  0
 12 13  1  0  0  0  0
 12 18  1  0  0  0  0
 13 14  1  0  0  0  0
 14 15  1  0  0  0  0
 14 16  1  0  0  0  0
 14 17  1  0  0  0  0
 18 19  1  0  0  0  0
 18 23  1  0  0  0  0
 19 20  1  0  0  0  0
 20 21  1  0  0  0  0
 21 22  1  0  0  0  0
 22 23  1  0  0  0  0
M  END
>  <Name_Molregno>
347388

>  <Norepinephrine transporter>
7.48

>  <Serotonin transporter>
8.34

$$$$
347389
  Marvin  02231216192D 0   1.00000     0.00000     0

 18 19  0  0  0  0  0  0  0  0999 V2000
    1.0587   -1.5244    0.0000 N   0  0  0  0  0  0  0  0  0
    1.0587   -0.6994    0.0000 C   0  0  0  0  0  0  0  0  0
    1.7732   -0.2869    0.0000 C   0  0  0  0  0  0  0  0  0
    2.4877   -0.6994    0.0000 C   0  0  0  0  0  0  0  0  0
    3.2021   -0.2869    0.0000 N   0  0  0  0  0  0  0  0  0
    3.2021    0.5381    0.0000 C   0  0  0  0  0  0  0  0  0
    2.4877    0.9506    0.0000 C   0  0  0  0  0  0  0  0  0
    1.7732    0.5381    0.0000 C   0  0  0  0  0  0  0  0  0
    1.0587    0.9506    0.0000 C   0  0  0  0  0  0  0  0  0
    1.0587    1.7756    0.0000 C   0  0  0  0  0  0  0  0  0
    1.7732    2.1881    0.0000 C   0  0  0  0  0  0  0  0  0
    2.4877    1.7756    0.0000 C   0  0  0  0  0  0  0  0  0
    3.9166   -0.6994    0.0000 C   0  0  0  0  0  0  0  0  0
    4.6311   -0.2869    0.0000 C   0  0  0  0  0  0  0  0  0
    4.6311    0.5381    0.0000 C   0  0  0  0  0  0  0  0  0
    5.3456   -0.6994    0.0000 C   0  0  0  0  0  0  0  0  0
    2.4877   -1.5244    0.0000 C   0  0  0  0  0  0  0  0  0
    1.7732   -1.9369    0.0000 C   0  0  0  0  0  0  0  0  0
  1  2  1  0  0  0  0
  1 18  1  0  0  0  0
  2  3  1  0  0  0  0
  3  4  1  0  0  0  0
  4  5  1  0  0  0  0
  4 17  1  0  0  0  0
  5  6  1  0  0  0  0
  5 13  1  0  0  0  0
  6  7  1  0  0  0  0
  7  8  4  0  0  0  0
  7 12  4  0  0  0  0
  8  9  4  0  0  0  0
  9 10  4  0  0  0  0
 10 11  4  0  0  0  0
 11 12  4  0  0  0  0
 13 14  1  0  0  0  0
 14 15  1  0  0  0  0
 14 16  1  0  0  0  0
 17 18  1  0  0  0  0
M  END
>  <Name_Molregno>
347389

>  <Norepinephrine transporter>
7.04

>  <Serotonin transporter>
8.08

$$$$
347408
  Marvin  02231216192D 0   1.00000     0.00000     0

 22 23  0  0  0  0  0  0  0  0999 V2000
    0.0591    2.4198    0.0000 F   0  0  0  0  0  0  0  0  0
    0.7735    2.8323    0.0000 C   0  0  0  0  0  0  0  0  0
    0.3610    3.5468    0.0000 F   0  0  0  0  0  0  0  0  0
    1.1860    2.1178    0.0000 F   0  0  0  0  0  0  0  0  0
    1.4880    3.2448    0.0000 C   0  0  0  0  0  0  0  0  0
    2.2025    2.8323    0.0000 C   0  0  0  0  0  0  0  0  0
    2.9170    3.2448    0.0000 C   0  0  0  0  0  0  0  0  0
    2.9170    4.0698    0.0000 C   0  0  0  0  0  0  0  0  0
    2.2025    4.4823    0.0000 C   0  0  0  0  0  0  0  0  0
    1.4880    4.0698    0.0000 C   0  0  0  0  0  0  0  0  0
    3.6314    2.8323    0.0000 C   0  0  0  0  0  0  0  0  0
    3.6314    2.0073    0.0000 N   0  0  0  0  0  0  0  0  0
    4.3459    1.5948    0.0000 C   0  0  0  0  0  0  0  0  0
    5.0604    2.0073    0.0000 C   0  0  0  0  0  0  0  0  0
    5.0604    2.8323    0.0000 C   0  0  0  0  0  0  0  0  0
    5.7748    1.5948    0.0000 C   0  0  0  0  0  0  0  0  0
    2.9170    1.5948    0.0000 C   0  0  0  0  0  0  0  0  0
    2.9170    0.7698    0.0000 C   0  0  0  0  0  0  0  0  0
    2.2025    0.3573    0.0000 C   0  0  0  0  0  0  0  0  0
    1.4880    0.7698    0.0000 N   0  0  0  0  0  0  0  0  0
    1.4880    1.5948    0.0000 C   0  0  0  0  0  0  0  0  0
    2.2025    2.0073    0.0000 C   0  0  0  0  0  0  0  0  0
  1  2  1  0  0  0  0
  2  3  1  0  0  0  0
  2  4  1  0  0  0  0
  2  5  1  0  0  0  0
  5  6  4  0  0  0  0
  5 10  4  0  0  0  0
  6  7  4  0  0  0  0
  7  8  4  0  0  0  0
  7 11  1  0  0  0  0
  8  9  4  0  0  0  0
  9 10  4  0  0  0  0
 11 12  1  0  0  0  0
 12 13  1  0  0  0  0
 12 17  1  0  0  0  0
 13 14  1  0  0  0  0
 14 15  1  0  0  0  0
 14 16  1  0  0  0  0
 17 18  1  0  0  0  0
 17 22  1  0  0  0  0
 18 19  1  0  0  0  0
 19 20  1  0  0  0  0
 20 21  1  0  0  0  0
 21 22  1  0  0  0  0
M  END
>  <Name_Molregno>
347408

>  <Norepinephrine transporter>
6.59

>  <Serotonin transporter>
9.59

$$$$
347409
  Marvin  02231216192D 0   1.00000     0.00000     0

 22 23  0  0  0  0  0  0  0  0999 V2000
   -5.2994    2.0319    0.0000 F   0  0  0  0  0  0  0  0  0
   -4.5850    1.6194    0.0000 C   0  0  0  0  0  0  0  0  0
   -4.9975    0.9049    0.0000 F   0  0  0  0  0  0  0  0  0
   -4.1725    2.3339    0.0000 F   0  0  0  0  0  0  0  0  0
   -3.8705    1.2069    0.0000 C   0  0  0  0  0  0  0  0  0
   -3.1560    1.6194    0.0000 C   0  0  0  0  0  0  0  0  0
   -2.4416    1.2069    0.0000 C   0  0  0  0  0  0  0  0  0
   -2.4416    0.3819    0.0000 C   0  0  0  0  0  0  0  0  0
   -3.1560   -0.0306    0.0000 C   0  0  0  0  0  0  0  0  0
   -3.8705    0.3819    0.0000 C   0  0  0  0  0  0  0  0  0
   -1.7271   -0.0306    0.0000 C   0  0  0  0  0  0  0  0  0
   -1.7271   -0.8556    0.0000 N   0  0  0  0  0  0  0  0  0
   -1.0126   -1.2681    0.0000 C   0  0  0  0  0  0  0  0  0
   -0.2981   -0.8556    0.0000 C   0  0  0  0  0  0  0  0  0
   -0.2981   -0.0306    0.0000 C   0  0  0  0  0  0  0  0  0
    0.4163   -1.2681    0.0000 C   0  0  0  0  0  0  0  0  0
   -2.4416   -1.2681    0.0000 C   0  0  0  0  0  0  0  0  0
   -2.4416   -2.0931    0.0000 C   0  0  0  0  0  0  0  0  0
   -3.1560   -2.5056    0.0000 C   0  0  0  0  0  0  0  0  0
   -3.8705   -2.0931    0.0000 N   0  0  0  0  0  0  0  0  0
   -3.8705   -1.2681    0.0000 C   0  0  0  0  0  0  0  0  0
   -3.1560   -0.8556    0.0000 C   0  0  0  0  0  0  0  0  0
  1  2  1  0  0  0  0
  2  3  1  0  0  0  0
  2  4  1  0  0  0  0
  2  5  1  0  0  0  0
  5  6  4  0  0  0  0
  5 10  4  0  0  0  0
  6  7  4  0  0  0  0
  7  8  4  0  0  0  0
  8  9  4  0  0  0  0
  8 11  1  0  0  0  0
  9 10  4  0  0  0  0
 11 12  1  0  0  0  0
 12 13  1  0  0  0  0
 12 17  1  0  0  0  0
 13 14  1  0  0  0  0
 14 15  1  0  0  0  0
 14 16  1  0  0  0  0
 17 18  1  0  0  0  0
 17 22  1  0  0  0  0
 18 19  1  0  0  0  0
 19 20  1  0  0  0  0
 20 21  1  0  0  0  0
 21 22  1  0  0  0  0
M  END
>  <Name_Molregno>
347409

>  <Norepinephrine transporter>
6.52

>  <Serotonin transporter>
10.15

$$$$
347414
  Marvin  02231216192D 0   1.00000     0.00000     0

 22 23  0  0  0  0  0  0  0  0999 V2000
   -2.2738   -1.1942    0.0000 F   0  0  0  0  0  0  0  0  0
   -2.2738   -0.3692    0.0000 C   0  0  0  0  0  0  0  0  0
   -1.4488   -0.3692    0.0000 F   0  0  0  0  0  0  0  0  0
   -3.0988   -0.3692    0.0000 F   0  0  0  0  0  0  0  0  0
   -2.2738    0.4558    0.0000 C   0  0  0  0  0  0  0  0  0
   -2.9883    0.8683    0.0000 C   0  0  0  0  0  0  0  0  0
   -2.9883    1.6933    0.0000 C   0  0  0  0  0  0  0  0  0
   -2.2738    2.1058    0.0000 C   0  0  0  0  0  0  0  0  0
   -1.5594    1.6933    0.0000 C   0  0  0  0  0  0  0  0  0
   -1.5594    0.8683    0.0000 C   0  0  0  0  0  0  0  0  0
   -0.8449    0.4558    0.0000 C   0  0  0  0  0  0  0  0  0
   -0.1304    0.8683    0.0000 N   0  0  0  0  0  0  0  0  0
    0.5841    0.4558    0.0000 C   0  0  0  0  0  0  0  0  0
    1.2985    0.8683    0.0000 C   0  0  0  0  0  0  0  0  0
    2.0130    0.4558    0.0000 C   0  0  0  0  0  0  0  0  0
    2.7275    0.8683    0.0000 C   0  0  0  0  0  0  0  0  0
   -0.1304    1.6933    0.0000 C   0  0  0  0  0  0  0  0  0
   -0.8449    2.1058    0.0000 C   0  0  0  0  0  0  0  0  0
   -0.8449    2.9308    0.0000 C   0  0  0  0  0  0  0  0  0
   -0.1304    3.3433    0.0000 N   0  0  0  0  0  0  0  0  0
    0.5841    2.9308    0.0000 C   0  0  0  0  0  0  0  0  0
    0.5841    2.1058    0.0000 C   0  0  0  0  0  0  0  0  0
  1  2  1  0  0  0  0
  2  3  1  0  0  0  0
  2  4  1  0  0  0  0
  2  5  1  0  0  0  0
  5  6  4  0  0  0  0
  5 10  4  0  0  0  0
  6  7  4  0  0  0  0
  7  8  4  0  0  0  0
  8  9  4  0  0  0  0
  9 10  4  0  0  0  0
 10 11  1  0  0  0  0
 11 12  1  0  0  0  0
 12 13  1  0  0  0  0
 12 17  1  0  0  0  0
 13 14  1  0  0  0  0
 14 15  1  0  0  0  0
 15 16  1  0  0  0  0
 17 18  1  0  0  0  0
 17 22  1  0  0  0  0
 18 19  1  0  0  0  0
 19 20  1  0  0  0  0
 20 21  1  0  0  0  0
 21 22  1  0  0  0  0
M  END
>  <Name_Molregno>
347414

>  <Norepinephrine transporter>
8.29

>  <Serotonin transporter>
8.82

$$$$
347415
  Marvin  02231216192D 0   1.00000     0.00000     0

 22 23  0  0  0  0  0  0  0  0999 V2000
    0.3901    3.1959    0.0000 F   0  0  0  0  0  0  0  0  0
   -0.3243    2.7834    0.0000 C   0  0  0  0  0  0  0  0  0
    0.0882    2.0689    0.0000 F   0  0  0  0  0  0  0  0  0
   -0.7368    3.4978    0.0000 F   0  0  0  0  0  0  0  0  0
   -1.0388    2.3709    0.0000 C   0  0  0  0  0  0  0  0  0
   -1.7533    2.7834    0.0000 C   0  0  0  0  0  0  0  0  0
   -2.4678    2.3709    0.0000 C   0  0  0  0  0  0  0  0  0
   -2.4678    1.5459    0.0000 C   0  0  0  0  0  0  0  0  0
   -1.7533    1.1334    0.0000 C   0  0  0  0  0  0  0  0  0
   -1.0388    1.5459    0.0000 C   0  0  0  0  0  0  0  0  0
   -0.3243    1.1334    0.0000 C   0  0  0  0  0  0  0  0  0
   -0.3243    0.3084    0.0000 N   0  0  0  0  0  0  0  0  0
    0.3901   -0.1041    0.0000 C   0  0  0  0  0  0  0  0  0
    1.1046    0.3084    0.0000 C   0  0  0  0  0  0  0  0  0
    1.1046    1.1334    0.0000 C   0  0  0  0  0  0  0  0  0
    1.8191   -0.1041    0.0000 C   0  0  0  0  0  0  0  0  0
   -1.0388   -0.1041    0.0000 C   0  0  0  0  0  0  0  0  0
   -1.0388   -0.9291    0.0000 C   0  0  0  0  0  0  0  0  0
   -1.7533   -1.3416    0.0000 C   0  0  0  0  0  0  0  0  0
   -2.4678   -0.9291    0.0000 N   0  0  0  0  0  0  0  0  0
   -2.4678   -0.1041    0.0000 C   0  0  0  0  0  0  0  0  0
   -1.7533    0.3084    0.0000 C   0  0  0  0  0  0  0  0  0
  1  2  1  0  0  0  0
  2  3  1  0  0  0  0
  2  4  1  0  0  0  0
  2  5  1  0  0  0  0
  5  6  4  0  0  0  0
  5 10  4  0  0  0  0
  6  7  4  0  0  0  0
  7  8  4  0  0  0  0
  8  9  4  0  0  0  0
  9 10  4  0  0  0  0
 10 11  1  0  0  0  0
 11 12  1  0  0  0  0
 12 13  1  0  0  0  0
 12 17  1  0  0  0  0
 13 14  1  0  0  0  0
 14 15  1  0  0  0  0
 14 16  1  0  0  0  0
 17 18  1  0  0  0  0
 17 22  1  0  0  0  0
 18 19  1  0  0  0  0
 19 20  1  0  0  0  0
 20 21  1  0  0  0  0
 21 22  1  0  0  0  0
M  END
>  <Name_Molregno>
347415

>  <Dopamine transporter>
6.68

>  <Norepinephrine transporter>
8.49

>  <Serotonin transporter>
8.85

$$$$
347422
  Marvin  02231216192D 0   1.00000     0.00000     0

 24 26  0  0  0  0  0  0  0  0999 V2000
   -0.2223   -0.5210    0.0000 F   0  0  0  0  0  0  0  0  0
    0.4922   -0.9335    0.0000 C   0  0  0  0  0  0  0  0  0
    1.2066   -0.5210    0.0000 C   0  0  0  0  0  0  0  0  0
    1.9211   -0.9335    0.0000 C   0  0  0  0  0  0  0  0  0
    2.6356   -0.5210    0.0000 C   0  0  0  0  0  0  0  0  0
    3.3500   -0.1085    0.0000 F   0  0  0  0  0  0  0  0  0
    3.0481   -1.2355    0.0000 F   0  0  0  0  0  0  0  0  0
    2.2231    0.1935    0.0000 F   0  0  0  0  0  0  0  0  0
    1.9211   -1.7585    0.0000 C   0  0  0  0  0  0  0  0  0
    1.2066   -2.1710    0.0000 C   0  0  0  0  0  0  0  0  0
    0.4922   -1.7585    0.0000 C   0  0  0  0  0  0  0  0  0
    2.6356   -2.1710    0.0000 C   0  0  0  0  0  0  0  0  0
    2.6356   -2.9960    0.0000 N   0  0  0  0  0  0  0  0  0
    3.3500   -3.4085    0.0000 C   0  0  0  0  0  0  0  0  0
    3.3500   -4.2335    0.0000 C   0  0  0  0  0  0  0  0  0
    3.9334   -4.8169    0.0000 C   0  0  0  0  0  0  0  0  0
    3.3500   -5.4002    0.0000 C   0  0  0  0  0  0  0  0  0
    2.7667   -4.8169    0.0000 C   0  0  0  0  0  0  0  0  0
    1.9211   -3.4085    0.0000 C   0  0  0  0  0  0  0  0  0
    1.9211   -4.2335    0.0000 C   0  0  0  0  0  0  0  0  0
    1.2066   -4.6460    0.0000 C   0  0  0  0  0  0  0  0  0
    0.4922   -4.2335    0.0000 N   0  0  0  0  0  0  0  0  0
    0.4922   -3.4085    0.0000 C   0  0  0  0  0  0  0  0  0
    1.2066   -2.9960    0.0000 C   0  0  0  0  0  0  0  0  0
  1  2  1  0  0  0  0
  2  3  4  0  0  0  0
  2 11  4  0  0  0  0
  3  4  4  0  0  0  0
  4  5  1  0  0  0  0
  4  9  4  0  0  0  0
  5  6  1  0  0  0  0
  5  7  1  0  0  0  0
  5  8  1  0  0  0  0
  9 10  4  0  0  0  0
  9 12  1  0  0  0  0
 10 11  4  0  0  0  0
 12 13  1  0  0  0  0
 13 14  1  0  0  0  0
 13 19  1  0  0  0  0
 14 15  1  0  0  0  0
 15 16  1  0  0  0  0
 15 18  1  0  0  0  0
 16 17  1  0  0  0  0
 17 18  1  0  0  0  0
 19 20  1  0  0  0  0
 19 24  1  0  0  0  0
 20 21  1  0  0  0  0
 21 22  1  0  0  0  0
 22 23  1  0  0  0  0
 23 24  1  0  0  0  0
M  END
>  <Name_Molregno>
347422

>  <Norepinephrine transporter>
8.51

>  <Serotonin transporter>
8.6

$$$$
347429
  Marvin  02231216192D 0   1.00000     0.00000     0

 22 24  0  0  0  0  0  0  0  0999 V2000
   -1.6533    3.4563    0.0000 F   0  0  0  0  0  0  0  0  0
   -0.9388    3.0438    0.0000 C   0  0  0  0  0  0  0  0  0
   -1.3513    2.3293    0.0000 F   0  0  0  0  0  0  0  0  0
   -0.5263    3.7582    0.0000 F   0  0  0  0  0  0  0  0  0
   -0.2243    2.6313    0.0000 C   0  0  0  0  0  0  0  0  0
    0.4901    3.0438    0.0000 C   0  0  0  0  0  0  0  0  0
    1.2046    2.6313    0.0000 C   0  0  0  0  0  0  0  0  0
    1.2046    1.8063    0.0000 C   0  0  0  0  0  0  0  0  0
    0.4901    1.3938    0.0000 C   0  0  0  0  0  0  0  0  0
   -0.2243    1.8063    0.0000 C   0  0  0  0  0  0  0  0  0
   -0.9388    1.3938    0.0000 C   0  0  0  0  0  0  0  0  0
   -0.9388    0.5688    0.0000 N   0  0  0  0  0  0  0  0  0
   -0.2243    0.1563    0.0000 C   0  0  0  0  0  0  0  0  0
   -0.2243   -0.6687    0.0000 C   0  0  0  0  0  0  0  0  0
    0.1882   -1.3832    0.0000 C   0  0  0  0  0  0  0  0  0
   -0.6368   -1.3832    0.0000 C   0  0  0  0  0  0  0  0  0
   -1.6533    0.1563    0.0000 C   0  0  0  0  0  0  0  0  0
   -1.6533   -0.6687    0.0000 C   0  0  0  0  0  0  0  0  0
   -2.3678   -1.0812    0.0000 C   0  0  0  0  0  0  0  0  0
   -3.0822   -0.6687    0.0000 N   0  0  0  0  0  0  0  0  0
   -3.0822    0.1563    0.0000 C   0  0  0  0  0  0  0  0  0
   -2.3678    0.5688    0.0000 C   0  0  0  0  0  0  0  0  0
  1  2  1  0  0  0  0
  2  3  1  0  0  0  0
  2  4  1  0  0  0  0
  2  5  1  0  0  0  0
  5  6  4  0  0  0  0
  5 10  4  0  0  0  0
  6  7  4  0  0  0  0
  7  8  4  0  0  0  0
  8  9  4  0  0  0  0
  9 10  4  0  0  0  0
 10 11  1  0  0  0  0
 11 12  1  0  0  0  0
 12 13  1  0  0  0  0
 12 17  1  0  0  0  0
 13 14  1  0  0  0  0
 14 15  1  0  0  0  0
 14 16  1  0  0  0  0
 15 16  1  0  0  0  0
 17 18  1  0  0  0  0
 17 22  1  0  0  0  0
 18 19  1  0  0  0  0
 19 20  1  0  0  0  0
 20 21  1  0  0  0  0
 21 22  1  0  0  0  0
M  END
>  <Name_Molregno>
347429

>  <Norepinephrine transporter>
8.22

>  <Serotonin transporter>
8.82

$$$$
347451
  Marvin  02231216192D 0   1.00000     0.00000     0

 20 21  0  0  0  0  0  0  0  0999 V2000
    1.0431   -2.0169    0.0000 N   0  0  0  0  0  0  0  0  0
    1.0431   -1.1919    0.0000 C   0  0  0  0  0  0  0  0  0
    1.7575   -0.7794    0.0000 C   0  0  0  0  0  0  0  0  0
    2.4720   -1.1919    0.0000 C   0  0  0  0  0  0  0  0  0
    3.1865   -0.7794    0.0000 N   0  0  0  0  0  0  0  0  0
    3.1865    0.0456    0.0000 C   0  0  0  0  0  0  0  0  0
    2.4720    0.4581    0.0000 C   0  0  0  0  0  0  0  0  0
    1.7575    0.0456    0.0000 C   0  0  0  0  0  0  0  0  0
    1.0431    0.4581    0.0000 C   0  0  0  0  0  0  0  0  0
    1.0431    1.2831    0.0000 C   0  0  0  0  0  0  0  0  0
    1.7575    1.6956    0.0000 C   0  0  0  0  0  0  0  0  0
    2.4720    1.2831    0.0000 C   0  0  0  0  0  0  0  0  0
    3.1865    1.6956    0.0000 C   0  0  0  0  0  0  0  0  0
    3.9010    2.1081    0.0000 N   0  0  0  0  0  0  0  0  0
    3.9010   -1.1919    0.0000 C   0  0  0  0  0  0  0  0  0
    4.6154   -0.7794    0.0000 C   0  0  0  0  0  0  0  0  0
    4.6154    0.0456    0.0000 C   0  0  0  0  0  0  0  0  0
    5.3299   -1.1919    0.0000 C   0  0  0  0  0  0  0  0  0
    2.4720   -2.0169    0.0000 C   0  0  0  0  0  0  0  0  0
    1.7575   -2.4294    0.0000 C   0  0  0  0  0  0  0  0  0
  1  2  1  0  0  0  0
  1 20  1  0  0  0  0
  2  3  1  0  0  0  0
  3  4  1  0  0  0  0
  4  5  1  0  0  0  0
  4 19  1  0  0  0  0
  5  6  1  0  0  0  0
  5 15  1  0  0  0  0
  6  7  1  0  0  0  0
  7  8  4  0  0  0  0
  7 12  4  0  0  0  0
  8  9  4  0  0  0  0
  9 10  4  0  0  0  0
 10 11  4  0  0  0  0
 11 12  4  0  0  0  0
 12 13  1  0  0  0  0
 13 14  3  0  0  0  0
 15 16  1  0  0  0  0
 16 17  1  0  0  0  0
 16 18  1  0  0  0  0
 19 20  1  0  0  0  0
M  END
>  <Name_Molregno>
347451

>  <Norepinephrine transporter>
7.38

>  <Serotonin transporter>
8.92

$$$$
347452
  Marvin  02231216192D 0   1.00000     0.00000     0

 23 24  0  0  0  0  0  0  0  0999 V2000
   -2.5750   -1.0789    0.0000 F   0  0  0  0  0  0  0  0  0
   -2.5750   -0.2539    0.0000 C   0  0  0  0  0  0  0  0  0
   -1.7500   -0.2539    0.0000 F   0  0  0  0  0  0  0  0  0
   -3.4000   -0.2539    0.0000 F   0  0  0  0  0  0  0  0  0
   -2.5750    0.5711    0.0000 C   0  0  0  0  0  0  0  0  0
   -3.2895    0.9836    0.0000 C   0  0  0  0  0  0  0  0  0
   -3.2895    1.8086    0.0000 C   0  0  0  0  0  0  0  0  0
   -2.5750    2.2211    0.0000 C   0  0  0  0  0  0  0  0  0
   -1.8605    1.8086    0.0000 C   0  0  0  0  0  0  0  0  0
   -1.8605    0.9836    0.0000 C   0  0  0  0  0  0  0  0  0
   -1.1461    0.5711    0.0000 C   0  0  0  0  0  0  0  0  0
   -0.4316    0.9836    0.0000 N   0  0  0  0  0  0  0  0  0
    0.2829    0.5711    0.0000 C   0  0  0  0  0  0  0  0  0
    0.9974    0.9836    0.0000 C   0  0  0  0  0  0  0  0  0
    1.7118    0.5711    0.0000 C   0  0  0  0  0  0  0  0  0
    2.4263    0.9836    0.0000 C   0  0  0  0  0  0  0  0  0
    3.1408    1.3961    0.0000 N   0  0  0  0  0  0  0  0  0
   -0.4316    1.8086    0.0000 C   0  0  0  0  0  0  0  0  0
   -1.1461    2.2211    0.0000 C   0  0  0  0  0  0  0  0  0
   -1.1461    3.0461    0.0000 C   0  0  0  0  0  0  0  0  0
   -0.4316    3.4586    0.0000 N   0  0  0  0  0  0  0  0  0
    0.2829    3.0461    0.0000 C   0  0  0  0  0  0  0  0  0
    0.2829    2.2211    0.0000 C   0  0  0  0  0  0  0  0  0
  1  2  1  0  0  0  0
  2  3  1  0  0  0  0
  2  4  1  0  0  0  0
  2  5  1  0  0  0  0
  5  6  4  0  0  0  0
  5 10  4  0  0  0  0
  6  7  4  0  0  0  0
  7  8  4  0  0  0  0
  8  9  4  0  0  0  0
  9 10  4  0  0  0  0
 10 11  1  0  0  0  0
 11 12  1  0  0  0  0
 12 13  1  0  0  0  0
 12 18  1  0  0  0  0
 13 14  1  0  0  0  0
 14 15  1  0  0  0  0
 15 16  1  0  0  0  0
 16 17  3  0  0  0  0
 18 19  1  0  0  0  0
 18 23  1  0  0  0  0
 19 20  1  0  0  0  0
 20 21  1  0  0  0  0
 21 22  1  0  0  0  0
 22 23  1  0  0  0  0
M  END
>  <Name_Molregno>
347452

>  <Norepinephrine transporter>
7.68

>  <Serotonin transporter>
9.24

$$$$
347459
  Marvin  02231216192D 0   1.00000     0.00000     0

 20 21  0  0  0  0  0  0  0  0999 V2000
   -0.9887    0.6306    0.0000 F   0  0  0  0  0  0  0  0  0
   -1.7032    0.2181    0.0000 C   0  0  0  0  0  0  0  0  0
   -2.4177    0.6306    0.0000 C   0  0  0  0  0  0  0  0  0
   -3.1321    0.2181    0.0000 C   0  0  0  0  0  0  0  0  0
   -3.8466    0.6306    0.0000 F   0  0  0  0  0  0  0  0  0
   -3.1321   -0.6069    0.0000 C   0  0  0  0  0  0  0  0  0
   -2.4177   -1.0194    0.0000 C   0  0  0  0  0  0  0  0  0
   -1.7032   -0.6069    0.0000 C   0  0  0  0  0  0  0  0  0
   -0.9887   -1.0194    0.0000 C   0  0  0  0  0  0  0  0  0
   -0.9887   -1.8444    0.0000 N   0  0  0  0  0  0  0  0  0
   -0.2743   -2.2569    0.0000 C   0  0  0  0  0  0  0  0  0
    0.4402   -1.8444    0.0000 C   0  0  0  0  0  0  0  0  0
    0.4402   -1.0194    0.0000 C   0  0  0  0  0  0  0  0  0
    1.1547   -2.2569    0.0000 C   0  0  0  0  0  0  0  0  0
   -1.7032   -2.2569    0.0000 C   0  0  0  0  0  0  0  0  0
   -1.7032   -3.0819    0.0000 C   0  0  0  0  0  0  0  0  0
   -2.4177   -3.4944    0.0000 C   0  0  0  0  0  0  0  0  0
   -3.1321   -3.0819    0.0000 N   0  0  0  0  0  0  0  0  0
   -3.1321   -2.2569    0.0000 C   0  0  0  0  0  0  0  0  0
   -2.4177   -1.8444    0.0000 C   0  0  0  0  0  0  0  0  0
  1  2  1  0  0  0  0
  2  3  4  0  0  0  0
  2  8  4  0  0  0  0
  3  4  4  0  0  0  0
  4  5  1  0  0  0  0
  4  6  4  0  0  0  0
  6  7  4  0  0  0  0
  7  8  4  0  0  0  0
  8  9  1  0  0  0  0
  9 10  1  0  0  0  0
 10 11  1  0  0  0  0
 10 15  1  0  0  0  0
 11 12  1  0  0  0  0
 12 13  1  0  0  0  0
 12 14  1  0  0  0  0
 15 16  1  0  0  0  0
 15 20  1  0  0  0  0
 16 17  1  0  0  0  0
 17 18  1  0  0  0  0
 18 19  1  0  0  0  0
 19 20  1  0  0  0  0
M  END
>  <Name_Molregno>
347459

>  <Dopamine transporter>
6.24

>  <Norepinephrine transporter>
7.7

>  <Serotonin transporter>
8.51

$$$$
347468
  Marvin  02231216192D 0   1.00000     0.00000     0

 23 24  0  0  0  0  0  0  0  0999 V2000
    0.5152   -2.7124    0.0000 Cl  0  0  0  0  0  0  0  0  0
   -0.1993   -3.1249    0.0000 C   0  0  0  0  0  0  0  0  0
   -0.1993   -3.9499    0.0000 C   0  0  0  0  0  0  0  0  0
   -0.9137   -4.3624    0.0000 C   0  0  0  0  0  0  0  0  0
   -1.6282   -3.9499    0.0000 C   0  0  0  0  0  0  0  0  0
   -1.6282   -3.1249    0.0000 C   0  0  0  0  0  0  0  0  0
   -0.9137   -2.7124    0.0000 C   0  0  0  0  0  0  0  0  0
   -0.9137   -1.8874    0.0000 C   0  0  0  0  0  0  0  0  0
   -0.1993   -1.4749    0.0000 N   0  0  0  0  0  0  0  0  0
    0.5152   -1.8874    0.0000 C   0  0  0  0  0  0  0  0  0
    1.2297   -1.4749    0.0000 C   0  0  0  0  0  0  0  0  0
    1.2297   -0.6499    0.0000 C   0  0  0  0  0  0  0  0  0
    1.9441   -1.8874    0.0000 C   0  0  0  0  0  0  0  0  0
   -0.1993   -0.6499    0.0000 C   0  0  0  0  0  0  0  0  0
   -0.9137   -0.2374    0.0000 C   0  0  0  0  0  0  0  0  0
   -0.9137    0.5876    0.0000 C   0  0  0  0  0  0  0  0  0
   -0.1993    1.0001    0.0000 N   0  0  0  0  0  0  0  0  0
    0.5152    0.5876    0.0000 C   0  0  0  0  0  0  0  0  0
    0.5152   -0.2374    0.0000 C   0  0  0  0  0  0  0  0  0
   -2.3427   -4.3624    0.0000 C   0  0  0  0  0  0  0  0  0
   -3.0572   -4.7749    0.0000 F   0  0  0  0  0  0  0  0  0
   -2.7552   -3.6479    0.0000 F   0  0  0  0  0  0  0  0  0
   -1.9302   -5.0768    0.0000 F   0  0  0  0  0  0  0  0  0
  1  2  1  0  0  0  0
  2  3  4  0  0  0  0
  2  7  4  0  0  0  0
  3  4  4  0  0  0  0
  4  5  4  0  0  0  0
  5  6  4  0  0  0  0
  5 20  1  0  0  0  0
  6  7  4  0  0  0  0
  7  8  1  0  0  0  0
  8  9  1  0  0  0  0
  9 10  1  0  0  0  0
  9 14  1  0  0  0  0
 10 11  1  0  0  0  0
 11 12  1  0  0  0  0
 11 13  1  0  0  0  0
 14 15  1  0  0  0  0
 14 19  1  0  0  0  0
 15 16  1  0  0  0  0
 16 17  1  0  0  0  0
 17 18  1  0  0  0  0
 18 19  1  0  0  0  0
 20 21  1  0  0  0  0
 20 22  1  0  0  0  0
 20 23  1  0  0  0  0
M  END
>  <Name_Molregno>
347468

>  <Norepinephrine transporter>
6.76

>  <Serotonin transporter>
8.02

$$$$
347469
  Marvin  02231216192D 0   1.00000     0.00000     0

 23 24  0  0  0  0  0  0  0  0999 V2000
    0.6743   -0.2413    0.0000 F   0  0  0  0  0  0  0  0  0
   -0.0401   -0.6538    0.0000 C   0  0  0  0  0  0  0  0  0
   -0.7546   -0.2413    0.0000 C   0  0  0  0  0  0  0  0  0
   -1.4691   -0.6538    0.0000 C   0  0  0  0  0  0  0  0  0
   -1.4691   -1.4788    0.0000 C   0  0  0  0  0  0  0  0  0
   -0.7546   -1.8913    0.0000 C   0  0  0  0  0  0  0  0  0
   -0.0401   -1.4788    0.0000 C   0  0  0  0  0  0  0  0  0
    0.6743   -1.8913    0.0000 C   0  0  0  0  0  0  0  0  0
    0.6743   -2.7163    0.0000 N   0  0  0  0  0  0  0  0  0
    1.3888   -3.1288    0.0000 C   0  0  0  0  0  0  0  0  0
    2.1033   -2.7163    0.0000 C   0  0  0  0  0  0  0  0  0
    2.1033   -1.8913    0.0000 C   0  0  0  0  0  0  0  0  0
    2.8177   -3.1288    0.0000 C   0  0  0  0  0  0  0  0  0
   -0.0401   -3.1288    0.0000 C   0  0  0  0  0  0  0  0  0
   -0.0401   -3.9538    0.0000 C   0  0  0  0  0  0  0  0  0
   -0.7546   -4.3663    0.0000 C   0  0  0  0  0  0  0  0  0
   -1.4691   -3.9538    0.0000 N   0  0  0  0  0  0  0  0  0
   -1.4691   -3.1288    0.0000 C   0  0  0  0  0  0  0  0  0
   -0.7546   -2.7163    0.0000 C   0  0  0  0  0  0  0  0  0
   -2.1835   -0.2413    0.0000 C   0  0  0  0  0  0  0  0  0
   -2.8980    0.1712    0.0000 F   0  0  0  0  0  0  0  0  0
   -2.5960   -0.9558    0.0000 F   0  0  0  0  0  0  0  0  0
   -1.7710    0.4732    0.0000 F   0  0  0  0  0  0  0  0  0
  1  2  1  0  0  0  0
  2  3  4  0  0  0  0
  2  7  4  0  0  0  0
  3  4  4  0  0  0  0
  4  5  4  0  0  0  0
  4 20  1  0  0  0  0
  5  6  4  0  0  0  0
  6  7  4  0  0  0  0
  7  8  1  0  0  0  0
  8  9  1  0  0  0  0
  9 10  1  0  0  0  0
  9 14  1  0  0  0  0
 10 11  1  0  0  0  0
 11 12  1  0  0  0  0
 11 13  1  0  0  0  0
 14 15  1  0  0  0  0
 14 19  1  0  0  0  0
 15 16  1  0  0  0  0
 16 17  1  0  0  0  0
 17 18  1  0  0  0  0
 18 19  1  0  0  0  0
 20 21  1  0  0  0  0
 20 22  1  0  0  0  0
 20 23  1  0  0  0  0
M  END
>  <Name_Molregno>
347469

>  <Dopamine transporter>
6.92

>  <Norepinephrine transporter>
8.66

>  <Serotonin transporter>
8.24

$$$$
347472
  Marvin  02231216192D 0   1.00000     0.00000     0

 23 24  0  0  0  0  0  0  0  0999 V2000
   -1.5735    1.5069    0.0000 F   0  0  0  0  0  0  0  0  0
   -1.5735    0.6819    0.0000 C   0  0  0  0  0  0  0  0  0
   -0.7485    0.6819    0.0000 F   0  0  0  0  0  0  0  0  0
   -2.3985    0.6819    0.0000 F   0  0  0  0  0  0  0  0  0
   -1.5735   -0.1431    0.0000 O   0  0  0  0  0  0  0  0  0
   -2.2880   -0.5556    0.0000 C   0  0  0  0  0  0  0  0  0
   -3.0025   -0.1431    0.0000 C   0  0  0  0  0  0  0  0  0
   -3.7169   -0.5556    0.0000 C   0  0  0  0  0  0  0  0  0
   -3.7169   -1.3806    0.0000 C   0  0  0  0  0  0  0  0  0
   -3.0025   -1.7931    0.0000 C   0  0  0  0  0  0  0  0  0
   -2.2880   -1.3806    0.0000 C   0  0  0  0  0  0  0  0  0
   -1.5735   -1.7931    0.0000 C   0  0  0  0  0  0  0  0  0
   -1.5735   -2.6181    0.0000 N   0  0  0  0  0  0  0  0  0
   -0.8591   -3.0306    0.0000 C   0  0  0  0  0  0  0  0  0
   -0.1446   -2.6181    0.0000 C   0  0  0  0  0  0  0  0  0
   -0.1446   -1.7931    0.0000 C   0  0  0  0  0  0  0  0  0
    0.5699   -3.0306    0.0000 C   0  0  0  0  0  0  0  0  0
   -2.2880   -3.0306    0.0000 C   0  0  0  0  0  0  0  0  0
   -2.2880   -3.8556    0.0000 C   0  0  0  0  0  0  0  0  0
   -3.0025   -4.2681    0.0000 C   0  0  0  0  0  0  0  0  0
   -3.7169   -3.8556    0.0000 N   0  0  0  0  0  0  0  0  0
   -3.7169   -3.0306    0.0000 C   0  0  0  0  0  0  0  0  0
   -3.0025   -2.6181    0.0000 C   0  0  0  0  0  0  0  0  0
  1  2  1  0  0  0  0
  2  3  1  0  0  0  0
  2  4  1  0  0  0  0
  2  5  1  0  0  0  0
  5  6  1  0  0  0  0
  6  7  4  0  0  0  0
  6 11  4  0  0  0  0
  7  8  4  0  0  0  0
  8  9  4  0  0  0  0
  9 10  4  0  0  0  0
 10 11  4  0  0  0  0
 11 12  1  0  0  0  0
 12 13  1  0  0  0  0
 13 14  1  0  0  0  0
 13 18  1  0  0  0  0
 14 15  1  0  0  0  0
 15 16  1  0  0  0  0
 15 17  1  0  0  0  0
 18 19  1  0  0  0  0
 18 23  1  0  0  0  0
 19 20  1  0  0  0  0
 20 21  1  0  0  0  0
 21 22  1  0  0  0  0
 22 23  1  0  0  0  0
M  END
>  <Name_Molregno>
347472

>  <Norepinephrine transporter>
8.15

>  <Serotonin transporter>
8.66

$$$$
347473
  Marvin  02231216192D 0   1.00000     0.00000     0

 20 21  0  0  0  0  0  0  0  0999 V2000
   -0.3433    3.7808    0.0000 O   0  0  0  0  0  0  0  0  0
   -0.3433    4.6058    0.0000 C   0  0  0  0  0  0  0  0  0
   -1.0578    3.3683    0.0000 C   0  0  0  0  0  0  0  0  0
   -1.7723    3.7808    0.0000 C   0  0  0  0  0  0  0  0  0
   -2.4868    3.3683    0.0000 C   0  0  0  0  0  0  0  0  0
   -2.4868    2.5433    0.0000 C   0  0  0  0  0  0  0  0  0
   -1.7723    2.1308    0.0000 C   0  0  0  0  0  0  0  0  0
   -1.0578    2.5433    0.0000 C   0  0  0  0  0  0  0  0  0
   -0.3433    2.1308    0.0000 C   0  0  0  0  0  0  0  0  0
   -0.3433    1.3058    0.0000 N   0  0  0  0  0  0  0  0  0
    0.3711    0.8933    0.0000 C   0  0  0  0  0  0  0  0  0
    1.0856    1.3058    0.0000 C   0  0  0  0  0  0  0  0  0
    1.0856    2.1308    0.0000 C   0  0  0  0  0  0  0  0  0
    1.8001    0.8933    0.0000 C   0  0  0  0  0  0  0  0  0
   -1.0578    0.8933    0.0000 C   0  0  0  0  0  0  0  0  0
   -1.0578    0.0683    0.0000 C   0  0  0  0  0  0  0  0  0
   -1.7723   -0.3442    0.0000 C   0  0  0  0  0  0  0  0  0
   -2.4868    0.0683    0.0000 N   0  0  0  0  0  0  0  0  0
   -2.4868    0.8933    0.0000 C   0  0  0  0  0  0  0  0  0
   -1.7723    1.3058    0.0000 C   0  0  0  0  0  0  0  0  0
  1  2  1  0  0  0  0
  1  3  1  0  0  0  0
  3  4  4  0  0  0  0
  3  8  4  0  0  0  0
  4  5  4  0  0  0  0
  5  6  4  0  0  0  0
  6  7  4  0  0  0  0
  7  8  4  0  0  0  0
  8  9  1  0  0  0  0
  9 10  1  0  0  0  0
 10 11  1  0  0  0  0
 10 15  1  0  0  0  0
 11 12  1  0  0  0  0
 12 13  1  0  0  0  0
 12 14  1  0  0  0  0
 15 16  1  0  0  0  0
 15 20  1  0  0  0  0
 16 17  1  0  0  0  0
 17 18  1  0  0  0  0
 18 19  1  0  0  0  0
 19 20  1  0  0  0  0
M  END
>  <Name_Molregno>
347473

>  <Norepinephrine transporter>
6.84

>  <Serotonin transporter>
7.82

$$$$
347476
  Marvin  02231216192D 0   1.00000     0.00000     0

 22 23  0  0  0  0  0  0  0  0999 V2000
    5.6532    1.8736    0.0000 F   0  0  0  0  0  0  0  0  0
    4.9388    1.4611    0.0000 C   0  0  0  0  0  0  0  0  0
    4.2243    1.8736    0.0000 C   0  0  0  0  0  0  0  0  0
    3.5098    1.4611    0.0000 C   0  0  0  0  0  0  0  0  0
    2.7954    1.8736    0.0000 C   0  0  0  0  0  0  0  0  0
    2.0809    2.2861    0.0000 F   0  0  0  0  0  0  0  0  0
    2.3829    1.1591    0.0000 F   0  0  0  0  0  0  0  0  0
    3.2079    2.5881    0.0000 F   0  0  0  0  0  0  0  0  0
    3.5098    0.6361    0.0000 C   0  0  0  0  0  0  0  0  0
    4.2243    0.2236    0.0000 C   0  0  0  0  0  0  0  0  0
    4.9388    0.6361    0.0000 C   0  0  0  0  0  0  0  0  0
    2.7954    0.2236    0.0000 C   0  0  0  0  0  0  0  0  0
    2.7954   -0.6014    0.0000 N   0  0  0  0  0  0  0  0  0
    3.5098   -1.0139    0.0000 C   0  0  0  0  0  0  0  0  0
    4.2243   -0.6014    0.0000 C   0  0  0  0  0  0  0  0  0
    4.9388   -1.0139    0.0000 C   0  0  0  0  0  0  0  0  0
    2.0809   -1.0139    0.0000 C   0  0  0  0  0  0  0  0  0
    2.0809   -1.8389    0.0000 C   0  0  0  0  0  0  0  0  0
    1.3664   -2.2514    0.0000 C   0  0  0  0  0  0  0  0  0
    0.6519   -1.8389    0.0000 N   0  0  0  0  0  0  0  0  0
    0.6519   -1.0139    0.0000 C   0  0  0  0  0  0  0  0  0
    1.3664   -0.6014    0.0000 C   0  0  0  0  0  0  0  0  0
  1  2  1  0  0  0  0
  2  3  4  0  0  0  0
  2 11  4  0  0  0  0
  3  4  4  0  0  0  0
  4  5  1  0  0  0  0
  4  9  4  0  0  0  0
  5  6  1  0  0  0  0
  5  7  1  0  0  0  0
  5  8  1  0  0  0  0
  9 10  4  0  0  0  0
  9 12  1  0  0  0  0
 10 11  4  0  0  0  0
 12 13  1  0  0  0  0
 13 14  1  0  0  0  0
 13 17  1  0  0  0  0
 14 15  1  0  0  0  0
 15 16  1  0  0  0  0
 17 18  1  0  0  0  0
 17 22  1  0  0  0  0
 18 19  1  0  0  0  0
 19 20  1  0  0  0  0
 20 21  1  0  0  0  0
 21 22  1  0  0  0  0
M  END
>  <Name_Molregno>
347476

>  <Norepinephrine transporter>
8.44

>  <Serotonin transporter>
9.1

$$$$
347480
  Marvin  02231216192D 0   1.00000     0.00000     0

 23 24  0  0  0  0  0  0  0  0999 V2000
    0.1163   -0.9200    0.0000 F   0  0  0  0  0  0  0  0  0
    0.8308   -0.5075    0.0000 C   0  0  0  0  0  0  0  0  0
    1.5452   -0.9200    0.0000 C   0  0  0  0  0  0  0  0  0
    2.2597   -0.5075    0.0000 C   0  0  0  0  0  0  0  0  0
    2.9742   -0.9200    0.0000 C   0  0  0  0  0  0  0  0  0
    2.9742   -1.7450    0.0000 N   0  0  0  0  0  0  0  0  0
    3.6887   -2.1575    0.0000 C   0  0  0  0  0  0  0  0  0
    4.4031   -1.7450    0.0000 C   0  0  0  0  0  0  0  0  0
    4.4031   -0.9200    0.0000 C   0  0  0  0  0  0  0  0  0
    5.1176   -2.1575    0.0000 C   0  0  0  0  0  0  0  0  0
    2.2597   -2.1575    0.0000 C   0  0  0  0  0  0  0  0  0
    2.2597   -2.9825    0.0000 C   0  0  0  0  0  0  0  0  0
    1.5452   -3.3950    0.0000 C   0  0  0  0  0  0  0  0  0
    0.8308   -2.9825    0.0000 N   0  0  0  0  0  0  0  0  0
    0.8308   -2.1575    0.0000 C   0  0  0  0  0  0  0  0  0
    1.5452   -1.7450    0.0000 C   0  0  0  0  0  0  0  0  0
    2.2597    0.3175    0.0000 C   0  0  0  0  0  0  0  0  0
    1.5452    0.7300    0.0000 C   0  0  0  0  0  0  0  0  0
    0.8308    0.3175    0.0000 C   0  0  0  0  0  0  0  0  0
    2.9742    0.7300    0.0000 C   0  0  0  0  0  0  0  0  0
    3.6887    1.1425    0.0000 F   0  0  0  0  0  0  0  0  0
    2.5617    1.4445    0.0000 F   0  0  0  0  0  0  0  0  0
    3.3867    0.0155    0.0000 F   0  0  0  0  0  0  0  0  0
  1  2  1  0  0  0  0
  2  3  4  0  0  0  0
  2 19  4  0  0  0  0
  3  4  4  0  0  0  0
  4  5  1  0  0  0  0
  4 17  4  0  0  0  0
  5  6  1  0  0  0  0
  6  7  1  0  0  0  0
  6 11  1  0  0  0  0
  7  8  1  0  0  0  0
  8  9  1  0  0  0  0
  8 10  1  0  0  0  0
 11 12  1  0  0  0  0
 11 16  1  0  0  0  0
 12 13  1  0  0  0  0
 13 14  1  0  0  0  0
 14 15  1  0  0  0  0
 15 16  1  0  0  0  0
 17 18  4  0  0  0  0
 17 20  1  0  0  0  0
 18 19  4  0  0  0  0
 20 21  1  0  0  0  0
 20 22  1  0  0  0  0
 20 23  1  0  0  0  0
M  END
>  <Name_Molregno>
347480

>  <Norepinephrine transporter>
8.47

>  <Serotonin transporter>
8.1

$$$$
347481
  Marvin  02231216192D 0   1.00000     0.00000     0

 22 23  0  0  0  0  0  0  0  0999 V2000
    0.1825   -0.0681    0.0000 O   0  0  0  0  0  0  0  0  0
    0.8970   -0.4806    0.0000 C   0  0  0  0  0  0  0  0  0
   -0.5320   -0.4806    0.0000 C   0  0  0  0  0  0  0  0  0
   -1.2465   -0.0681    0.0000 C   0  0  0  0  0  0  0  0  0
   -1.9609   -0.4806    0.0000 C   0  0  0  0  0  0  0  0  0
   -2.6754   -0.0681    0.0000 O   0  0  0  0  0  0  0  0  0
   -3.3899   -0.4806    0.0000 C   0  0  0  0  0  0  0  0  0
   -1.9609   -1.3056    0.0000 C   0  0  0  0  0  0  0  0  0
   -1.2465   -1.7181    0.0000 C   0  0  0  0  0  0  0  0  0
   -0.5320   -1.3056    0.0000 C   0  0  0  0  0  0  0  0  0
    0.1825   -1.7181    0.0000 C   0  0  0  0  0  0  0  0  0
    0.1825   -2.5431    0.0000 N   0  0  0  0  0  0  0  0  0
    0.8970   -2.9556    0.0000 C   0  0  0  0  0  0  0  0  0
    1.6114   -2.5431    0.0000 C   0  0  0  0  0  0  0  0  0
    1.6114   -1.7181    0.0000 C   0  0  0  0  0  0  0  0  0
    2.3259   -2.9556    0.0000 C   0  0  0  0  0  0  0  0  0
   -0.5320   -2.9556    0.0000 C   0  0  0  0  0  0  0  0  0
   -0.5320   -3.7806    0.0000 C   0  0  0  0  0  0  0  0  0
   -1.2465   -4.1931    0.0000 C   0  0  0  0  0  0  0  0  0
   -1.9609   -3.7806    0.0000 N   0  0  0  0  0  0  0  0  0
   -1.9609   -2.9556    0.0000 C   0  0  0  0  0  0  0  0  0
   -1.2465   -2.5431    0.0000 C   0  0  0  0  0  0  0  0  0
  1  2  1  0  0  0  0
  1  3  1  0  0  0  0
  3  4  4  0  0  0  0
  3 10  4  0  0  0  0
  4  5  4  0  0  0  0
  5  6  1  0  0  0  0
  5  8  4  0  0  0  0
  6  7  1  0  0  0  0
  8  9  4  0  0  0  0
  9 10  4  0  0  0  0
 10 11  1  0  0  0  0
 11 12  1  0  0  0  0
 12 13  1  0  0  0  0
 12 17  1  0  0  0  0
 13 14  1  0  0  0  0
 14 15  1  0  0  0  0
 14 16  1  0  0  0  0
 17 18  1  0  0  0  0
 17 22  1  0  0  0  0
 18 19  1  0  0  0  0
 19 20  1  0  0  0  0
 20 21  1  0  0  0  0
 21 22  1  0  0  0  0
M  END
>  <Name_Molregno>
347481

>  <Norepinephrine transporter>
5.97

>  <Serotonin transporter>
8.66

$$$$
347482
  Marvin  02231216192D 0   1.00000     0.00000     0

 20 21  0  0  0  0  0  0  0  0999 V2000
    0.8359    2.6114    0.0000 F   0  0  0  0  0  0  0  0  0
    0.8359    1.7864    0.0000 C   0  0  0  0  0  0  0  0  0
    0.0109    1.7864    0.0000 F   0  0  0  0  0  0  0  0  0
    1.6609    1.7864    0.0000 F   0  0  0  0  0  0  0  0  0
    0.8359    0.9614    0.0000 C   0  0  0  0  0  0  0  0  0
    1.5504    0.5489    0.0000 C   0  0  0  0  0  0  0  0  0
    1.5504   -0.2761    0.0000 C   0  0  0  0  0  0  0  0  0
    0.8359   -0.6886    0.0000 C   0  0  0  0  0  0  0  0  0
    0.1214   -0.2761    0.0000 C   0  0  0  0  0  0  0  0  0
    0.1214    0.5489    0.0000 C   0  0  0  0  0  0  0  0  0
   -0.5931    0.9614    0.0000 C   0  0  0  0  0  0  0  0  0
   -1.3075    0.5489    0.0000 N   0  0  0  0  0  0  0  0  0
   -1.3075   -0.2761    0.0000 C   0  0  0  0  0  0  0  0  0
   -2.0220   -0.6886    0.0000 C   0  0  0  0  0  0  0  0  0
   -2.0220    0.9614    0.0000 C   0  0  0  0  0  0  0  0  0
   -2.7365    0.5489    0.0000 C   0  0  0  0  0  0  0  0  0
   -3.4509    0.9614    0.0000 C   0  0  0  0  0  0  0  0  0
   -3.4509    1.7864    0.0000 N   0  0  0  0  0  0  0  0  0
   -2.7365    2.1989    0.0000 C   0  0  0  0  0  0  0  0  0
   -2.0220    1.7864    0.0000 C   0  0  0  0  0  0  0  0  0
  1  2  1  0  0  0  0
  2  3  1  0  0  0  0
  2  4  1  0  0  0  0
  2  5  1  0  0  0  0
  5  6  4  0  0  0  0
  5 10  4  0  0  0  0
  6  7  4  0  0  0  0
  7  8  4  0  0  0  0
  8  9  4  0  0  0  0
  9 10  4  0  0  0  0
 10 11  1  0  0  0  0
 11 12  1  0  0  0  0
 12 13  1  0  0  0  0
 12 15  1  0  0  0  0
 13 14  1  0  0  0  0
 15 16  1  0  0  0  0
 15 20  1  0  0  0  0
 16 17  1  0  0  0  0
 17 18  1  0  0  0  0
 18 19  1  0  0  0  0
 19 20  1  0  0  0  0
M  END
>  <Name_Molregno>
347482

>  <Norepinephrine transporter>
7.21

>  <Serotonin transporter>
8.1

$$$$
347483
  Marvin  02231216192D 0   1.00000     0.00000     0

 21 22  0  0  0  0  0  0  0  0999 V2000
   -1.6062    1.1665    0.0000 F   0  0  0  0  0  0  0  0  0
   -0.8917    0.7540    0.0000 C   0  0  0  0  0  0  0  0  0
   -1.3042    0.0395    0.0000 F   0  0  0  0  0  0  0  0  0
   -0.4792    1.4684    0.0000 F   0  0  0  0  0  0  0  0  0
   -0.1772    0.3415    0.0000 C   0  0  0  0  0  0  0  0  0
    0.5372    0.7540    0.0000 C   0  0  0  0  0  0  0  0  0
    1.2517    0.3415    0.0000 C   0  0  0  0  0  0  0  0  0
    1.2517   -0.4835    0.0000 C   0  0  0  0  0  0  0  0  0
    0.5372   -0.8960    0.0000 C   0  0  0  0  0  0  0  0  0
   -0.1772   -0.4835    0.0000 C   0  0  0  0  0  0  0  0  0
   -0.8917   -0.8960    0.0000 C   0  0  0  0  0  0  0  0  0
   -0.8917   -1.7210    0.0000 N   0  0  0  0  0  0  0  0  0
   -0.1772   -2.1335    0.0000 C   0  0  0  0  0  0  0  0  0
    0.5372   -1.7210    0.0000 C   0  0  0  0  0  0  0  0  0
    1.2517   -2.1335    0.0000 C   0  0  0  0  0  0  0  0  0
   -1.6062   -2.1335    0.0000 C   0  0  0  0  0  0  0  0  0
   -1.6062   -2.9585    0.0000 C   0  0  0  0  0  0  0  0  0
   -2.3207   -3.3710    0.0000 C   0  0  0  0  0  0  0  0  0
   -3.0351   -2.9585    0.0000 N   0  0  0  0  0  0  0  0  0
   -3.0351   -2.1335    0.0000 C   0  0  0  0  0  0  0  0  0
   -2.3207   -1.7210    0.0000 C   0  0  0  0  0  0  0  0  0
  1  2  1  0  0  0  0
  2  3  1  0  0  0  0
  2  4  1  0  0  0  0
  2  5  1  0  0  0  0
  5  6  4  0  0  0  0
  5 10  4  0  0  0  0
  6  7  4  0  0  0  0
  7  8  4  0  0  0  0
  8  9  4  0  0  0  0
  9 10  4  0  0  0  0
 10 11  1  0  0  0  0
 11 12  1  0  0  0  0
 12 13  1  0  0  0  0
 12 16  1  0  0  0  0
 13 14  1  0  0  0  0
 14 15  1  0  0  0  0
 16 17  1  0  0  0  0
 16 21  1  0  0  0  0
 17 18  1  0  0  0  0
 18 19  1  0  0  0  0
 19 20  1  0  0  0  0
 20 21  1  0  0  0  0
M  END
>  <Name_Molregno>
347483

>  <Norepinephrine transporter>
8.19

>  <Serotonin transporter>
8.66

$$$$
347484
  Marvin  02231216192D 0   1.00000     0.00000     0

 26 27  0  0  0  0  0  0  0  0999 V2000
   -5.4852   -2.4652    0.0000 F   0  0  0  0  0  0  0  0  0
   -4.6843   -2.2670    0.0000 C   0  0  0  0  0  0  0  0  0
   -4.4555   -1.4744    0.0000 C   0  0  0  0  0  0  0  0  0
   -3.6546   -1.2762    0.0000 C   0  0  0  0  0  0  0  0  0
   -3.4258   -0.4836    0.0000 C   0  0  0  0  0  0  0  0  0
   -3.1970    0.3091    0.0000 F   0  0  0  0  0  0  0  0  0
   -2.6332   -0.7124    0.0000 F   0  0  0  0  0  0  0  0  0
   -4.2185   -0.2548    0.0000 F   0  0  0  0  0  0  0  0  0
   -3.0826   -1.8707    0.0000 C   0  0  0  0  0  0  0  0  0
   -3.3114   -2.6633    0.0000 C   0  0  0  0  0  0  0  0  0
   -4.1123   -2.8615    0.0000 C   0  0  0  0  0  0  0  0  0
   -2.2818   -1.6725    0.0000 C   0  0  0  0  0  0  0  0  0
   -1.7097   -2.2670    0.0000 N   0  0  0  0  0  0  0  0  0
   -0.9089   -2.0688    0.0000 C   0  0  0  0  0  0  0  0  0
   -0.3368   -2.6633    0.0000 C   0  0  0  0  0  0  0  0  0
    0.4640   -2.4652    0.0000 C   0  0  0  0  0  0  0  0  0
    1.2649   -2.2670    0.0000 C   0  0  0  0  0  0  0  0  0
    2.0657   -2.0688    0.0000 N   0  0  0  0  0  0  0  0  0
    0.6622   -3.2660    0.0000 C   0  0  0  0  0  0  0  0  0
    0.2658   -1.6643    0.0000 C   0  0  0  0  0  0  0  0  0
   -1.9385   -3.0596    0.0000 C   0  0  0  0  0  0  0  0  0
   -1.3665   -3.6541    0.0000 C   0  0  0  0  0  0  0  0  0
   -1.5953   -4.4467    0.0000 C   0  0  0  0  0  0  0  0  0
   -2.3962   -4.6449    0.0000 N   0  0  0  0  0  0  0  0  0
   -2.9682   -4.0504    0.0000 C   0  0  0  0  0  0  0  0  0
   -2.7394   -3.2578    0.0000 C   0  0  0  0  0  0  0  0  0
  1  2  1  0  0  0  0
  2  3  4  0  0  0  0
  2 11  4  0  0  0  0
  3  4  4  0  0  0  0
  4  5  1  0  0  0  0
  4  9  4  0  0  0  0
  5  6  1  0  0  0  0
  5  7  1  0  0  0  0
  5  8  1  0  0  0  0
  9 10  4  0  0  0  0
  9 12  1  0  0  0  0
 10 11  4  0  0  0  0
 12 13  1  0  0  0  0
 13 14  1  0  0  0  0
 13 21  1  0  0  0  0
 14 15  1  0  0  0  0
 15 16  1  0  0  0  0
 16 17  1  0  0  0  0
 16 19  1  0  0  0  0
 16 20  1  0  0  0  0
 17 18  3  0  0  0  0
 21 22  1  0  0  0  0
 21 26  1  0  0  0  0
 22 23  1  0  0  0  0
 23 24  1  0  0  0  0
 24 25  1  0  0  0  0
 25 26  1  0  0  0  0
M  END
>  <Name_Molregno>
347484

>  <Norepinephrine transporter>
8.21

>  <Serotonin transporter>
9.15

$$$$
347485
  Marvin  02231216192D 0   1.00000     0.00000     0

 22 23  0  0  0  0  0  0  0  0999 V2000
    5.6532    1.8736    0.0000 F   0  0  0  0  0  0  0  0  0
    4.9388    1.4611    0.0000 C   0  0  0  0  0  0  0  0  0
    4.2243    1.8736    0.0000 C   0  0  0  0  0  0  0  0  0
    3.5098    1.4611    0.0000 C   0  0  0  0  0  0  0  0  0
    2.7954    1.8736    0.0000 C   0  0  0  0  0  0  0  0  0
    2.0809    2.2861    0.0000 F   0  0  0  0  0  0  0  0  0
    2.3829    1.1591    0.0000 F   0  0  0  0  0  0  0  0  0
    3.2079    2.5881    0.0000 F   0  0  0  0  0  0  0  0  0
    3.5098    0.6361    0.0000 C   0  0  0  0  0  0  0  0  0
    4.2243    0.2236    0.0000 C   0  0  0  0  0  0  0  0  0
    4.9388    0.6361    0.0000 C   0  0  0  0  0  0  0  0  0
    2.7954    0.2236    0.0000 C   0  0  0  0  0  0  0  0  0
    2.7954   -0.6014    0.0000 N   0  0  0  0  0  0  0  0  0
    3.5098   -1.0139    0.0000 C   0  0  0  0  0  0  0  0  0
    4.2243   -0.6014    0.0000 C   0  0  0  0  0  0  0  0  0
    4.9388   -1.0139    0.0000 O   0  0  0  0  0  0  0  0  0
    2.0809   -1.0139    0.0000 C   0  0  0  0  0  0  0  0  0
    2.0809   -1.8389    0.0000 C   0  0  0  0  0  0  0  0  0
    1.3664   -2.2514    0.0000 C   0  0  0  0  0  0  0  0  0
    0.6519   -1.8389    0.0000 N   0  0  0  0  0  0  0  0  0
    0.6519   -1.0139    0.0000 C   0  0  0  0  0  0  0  0  0
    1.3664   -0.6014    0.0000 C   0  0  0  0  0  0  0  0  0
  1  2  1  0  0  0  0
  2  3  4  0  0  0  0
  2 11  4  0  0  0  0
  3  4  4  0  0  0  0
  4  5  1  0  0  0  0
  4  9  4  0  0  0  0
  5  6  1  0  0  0  0
  5  7  1  0  0  0  0
  5  8  1  0  0  0  0
  9 10  4  0  0  0  0
  9 12  1  0  0  0  0
 10 11  4  0  0  0  0
 12 13  1  0  0  0  0
 13 14  1  0  0  0  0
 13 17  1  0  0  0  0
 14 15  1  0  0  0  0
 15 16  1  0  0  0  0
 17 18  1  0  0  0  0
 17 22  1  0  0  0  0
 18 19  1  0  0  0  0
 19 20  1  0  0  0  0
 20 21  1  0  0  0  0
 21 22  1  0  0  0  0
M  END
>  <Name_Molregno>
347485

>  <Norepinephrine transporter>
7.02

>  <Serotonin transporter>
8.51

$$$$
347487
  Marvin  02231216192D 0   1.00000     0.00000     0

 23 24  0  0  0  0  0  0  0  0999 V2000
   -0.8891   -1.5560    0.0000 F   0  0  0  0  0  0  0  0  0
   -0.1746   -1.9685    0.0000 C   0  0  0  0  0  0  0  0  0
   -0.1746   -2.7935    0.0000 C   0  0  0  0  0  0  0  0  0
    0.5399   -3.2060    0.0000 C   0  0  0  0  0  0  0  0  0
    0.5399   -4.0310    0.0000 C   0  0  0  0  0  0  0  0  0
    0.5399   -4.8560    0.0000 F   0  0  0  0  0  0  0  0  0
    1.3649   -4.0310    0.0000 F   0  0  0  0  0  0  0  0  0
   -0.2851   -4.0310    0.0000 F   0  0  0  0  0  0  0  0  0
    1.2543   -2.7935    0.0000 C   0  0  0  0  0  0  0  0  0
    1.2543   -1.9685    0.0000 C   0  0  0  0  0  0  0  0  0
    0.5399   -1.5560    0.0000 C   0  0  0  0  0  0  0  0  0
    1.9688   -3.2060    0.0000 C   0  0  0  0  0  0  0  0  0
    2.6833   -2.7935    0.0000 N   0  0  0  0  0  0  0  0  0
    3.3977   -3.2060    0.0000 C   0  0  0  0  0  0  0  0  0
    4.1122   -2.7935    0.0000 C   0  0  0  0  0  0  0  0  0
    4.8267   -3.2060    0.0000 C   0  0  0  0  0  0  0  0  0
    5.5412   -2.7935    0.0000 C   0  0  0  0  0  0  0  0  0
    2.6833   -1.9685    0.0000 C   0  0  0  0  0  0  0  0  0
    1.9688   -1.5560    0.0000 C   0  0  0  0  0  0  0  0  0
    1.9688   -0.7310    0.0000 C   0  0  0  0  0  0  0  0  0
    2.6833   -0.3185    0.0000 N   0  0  0  0  0  0  0  0  0
    3.3977   -0.7310    0.0000 C   0  0  0  0  0  0  0  0  0
    3.3977   -1.5560    0.0000 C   0  0  0  0  0  0  0  0  0
  1  2  1  0  0  0  0
  2  3  4  0  0  0  0
  2 11  4  0  0  0  0
  3  4  4  0  0  0  0
  4  5  1  0  0  0  0
  4  9  4  0  0  0  0
  5  6  1  0  0  0  0
  5  7  1  0  0  0  0
  5  8  1  0  0  0  0
  9 10  4  0  0  0  0
  9 12  1  0  0  0  0
 10 11  4  0  0  0  0
 12 13  1  0  0  0  0
 13 14  1  0  0  0  0
 13 18  1  0  0  0  0
 14 15  1  0  0  0  0
 15 16  1  0  0  0  0
 16 17  1  0  0  0  0
 18 19  1  0  0  0  0
 18 23  1  0  0  0  0
 19 20  1  0  0  0  0
 20 21  1  0  0  0  0
 21 22  1  0  0  0  0
 22 23  1  0  0  0  0
M  END
>  <Name_Molregno>
347487

>  <Norepinephrine transporter>
8.08

>  <Serotonin transporter>
8.89

$$$$
347488
  Marvin  02231216192D 0   1.00000     0.00000     0

 23 25  0  0  0  0  0  0  0  0999 V2000
    5.2471    1.0735    0.0000 F   0  0  0  0  0  0  0  0  0
    4.5326    0.6610    0.0000 C   0  0  0  0  0  0  0  0  0
    4.5326   -0.1640    0.0000 C   0  0  0  0  0  0  0  0  0
    3.8181   -0.5765    0.0000 C   0  0  0  0  0  0  0  0  0
    3.8181   -1.4015    0.0000 C   0  0  0  0  0  0  0  0  0
    3.8181   -2.2265    0.0000 F   0  0  0  0  0  0  0  0  0
    2.9931   -1.4015    0.0000 F   0  0  0  0  0  0  0  0  0
    4.6431   -1.4015    0.0000 F   0  0  0  0  0  0  0  0  0
    3.1037   -0.1640    0.0000 C   0  0  0  0  0  0  0  0  0
    3.1037    0.6610    0.0000 C   0  0  0  0  0  0  0  0  0
    3.8181    1.0735    0.0000 C   0  0  0  0  0  0  0  0  0
    2.3892   -0.5765    0.0000 C   0  0  0  0  0  0  0  0  0
    2.3892   -1.4015    0.0000 N   0  0  0  0  0  0  0  0  0
    3.1037   -1.8140    0.0000 C   0  0  0  0  0  0  0  0  0
    3.1037   -2.6390    0.0000 C   0  0  0  0  0  0  0  0  0
    3.5162   -3.3535    0.0000 C   0  0  0  0  0  0  0  0  0
    2.6912   -3.3535    0.0000 C   0  0  0  0  0  0  0  0  0
    1.6747   -1.8140    0.0000 C   0  0  0  0  0  0  0  0  0
    1.6747   -2.6390    0.0000 C   0  0  0  0  0  0  0  0  0
    0.9603   -3.0515    0.0000 C   0  0  0  0  0  0  0  0  0
    0.2458   -2.6390    0.0000 N   0  0  0  0  0  0  0  0  0
    0.2458   -1.8140    0.0000 C   0  0  0  0  0  0  0  0  0
    0.9603   -1.4015    0.0000 C   0  0  0  0  0  0  0  0  0
  1  2  1  0  0  0  0
  2  3  4  0  0  0  0
  2 11  4  0  0  0  0
  3  4  4  0  0  0  0
  4  5  1  0  0  0  0
  4  9  4  0  0  0  0
  5  6  1  0  0  0  0
  5  7  1  0  0  0  0
  5  8  1  0  0  0  0
  9 10  4  0  0  0  0
  9 12  1  0  0  0  0
 10 11  4  0  0  0  0
 12 13  1  0  0  0  0
 13 14  1  0  0  0  0
 13 18  1  0  0  0  0
 14 15  1  0  0  0  0
 15 16  1  0  0  0  0
 15 17  1  0  0  0  0
 16 17  1  0  0  0  0
 18 19  1  0  0  0  0
 18 23  1  0  0  0  0
 19 20  1  0  0  0  0
 20 21  1  0  0  0  0
 21 22  1  0  0  0  0
 22 23  1  0  0  0  0
M  END
>  <Name_Molregno>
347488

>  <Norepinephrine transporter>
8.2

>  <Serotonin transporter>
9.25

$$$$
347491
  Marvin  02231216192D 0   1.00000     0.00000     0

 21 22  0  0  0  0  0  0  0  0999 V2000
    0.8429    2.7639    0.0000 F   0  0  0  0  0  0  0  0  0
    0.8429    1.9389    0.0000 C   0  0  0  0  0  0  0  0  0
    0.0179    1.9389    0.0000 F   0  0  0  0  0  0  0  0  0
    1.6679    1.9389    0.0000 F   0  0  0  0  0  0  0  0  0
    0.8429    1.1139    0.0000 C   0  0  0  0  0  0  0  0  0
    1.5573    0.7014    0.0000 C   0  0  0  0  0  0  0  0  0
    1.5573   -0.1236    0.0000 C   0  0  0  0  0  0  0  0  0
    0.8429   -0.5361    0.0000 C   0  0  0  0  0  0  0  0  0
    0.1284   -0.1236    0.0000 C   0  0  0  0  0  0  0  0  0
    0.1284    0.7014    0.0000 C   0  0  0  0  0  0  0  0  0
   -0.5861    1.1139    0.0000 C   0  0  0  0  0  0  0  0  0
   -1.3006    0.7014    0.0000 N   0  0  0  0  0  0  0  0  0
   -1.3006   -0.1236    0.0000 C   0  0  0  0  0  0  0  0  0
   -2.0150   -0.5361    0.0000 C   0  0  0  0  0  0  0  0  0
   -0.5861   -0.5361    0.0000 C   0  0  0  0  0  0  0  0  0
   -2.0150    1.1139    0.0000 C   0  0  0  0  0  0  0  0  0
   -2.7295    0.7014    0.0000 C   0  0  0  0  0  0  0  0  0
   -3.4440    1.1139    0.0000 C   0  0  0  0  0  0  0  0  0
   -3.4440    1.9389    0.0000 N   0  0  0  0  0  0  0  0  0
   -2.7295    2.3514    0.0000 C   0  0  0  0  0  0  0  0  0
   -2.0150    1.9389    0.0000 C   0  0  0  0  0  0  0  0  0
  1  2  1  0  0  0  0
  2  3  1  0  0  0  0
  2  4  1  0  0  0  0
  2  5  1  0  0  0  0
  5  6  4  0  0  0  0
  5 10  4  0  0  0  0
  6  7  4  0  0  0  0
  7  8  4  0  0  0  0
  8  9  4  0  0  0  0
  9 10  4  0  0  0  0
 10 11  1  0  0  0  0
 11 12  1  0  0  0  0
 12 13  1  0  0  0  0
 12 16  1  0  0  0  0
 13 14  1  0  0  0  0
 13 15  1  0  0  0  0
 16 17  1  0  0  0  0
 16 21  1  0  0  0  0
 17 18  1  0  0  0  0
 18 19  1  0  0  0  0
 19 20  1  0  0  0  0
 20 21  1  0  0  0  0
M  END
>  <Name_Molregno>
347491

>  <Norepinephrine transporter>
7.59

>  <Serotonin transporter>
8.25

$$$$
347498
  Marvin  02231216192D 0   1.00000     0.00000     0

 24 25  0  0  0  0  0  0  0  0999 V2000
    2.2442    3.5990    0.0000 F   0  0  0  0  0  0  0  0  0
    2.2442    2.7740    0.0000 C   0  0  0  0  0  0  0  0  0
    2.9587    2.3615    0.0000 C   0  0  0  0  0  0  0  0  0
    2.9587    1.5365    0.0000 C   0  0  0  0  0  0  0  0  0
    3.6732    1.1240    0.0000 C   0  0  0  0  0  0  0  0  0
    4.3877    0.7115    0.0000 F   0  0  0  0  0  0  0  0  0
    3.2607    0.4095    0.0000 F   0  0  0  0  0  0  0  0  0
    4.0857    1.8384    0.0000 F   0  0  0  0  0  0  0  0  0
    2.2442    1.1240    0.0000 C   0  0  0  0  0  0  0  0  0
    1.5298    1.5365    0.0000 C   0  0  0  0  0  0  0  0  0
    1.5298    2.3615    0.0000 C   0  0  0  0  0  0  0  0  0
    2.2442    0.2990    0.0000 C   0  0  0  0  0  0  0  0  0
    2.9587   -0.1135    0.0000 N   0  0  0  0  0  0  0  0  0
    3.6732    0.2990    0.0000 C   0  0  0  0  0  0  0  0  0
    4.3877   -0.1135    0.0000 C   0  0  0  0  0  0  0  0  0
    3.9752   -0.8280    0.0000 O   0  0  0  0  0  0  0  0  0
    4.8002    0.6009    0.0000 C   0  0  0  0  0  0  0  0  0
    5.1021   -0.5260    0.0000 C   0  0  0  0  0  0  0  0  0
    2.9587   -0.9385    0.0000 C   0  0  0  0  0  0  0  0  0
    3.6732   -1.3510    0.0000 C   0  0  0  0  0  0  0  0  0
    3.6732   -2.1760    0.0000 C   0  0  0  0  0  0  0  0  0
    2.9587   -2.5885    0.0000 N   0  0  0  0  0  0  0  0  0
    2.2442   -2.1760    0.0000 C   0  0  0  0  0  0  0  0  0
    2.2442   -1.3510    0.0000 C   0  0  0  0  0  0  0  0  0
  1  2  1  0  0  0  0
  2  3  4  0  0  0  0
  2 11  4  0  0  0  0
  3  4  4  0  0  0  0
  4  5  1  0  0  0  0
  4  9  4  0  0  0  0
  5  6  1  0  0  0  0
  5  7  1  0  0  0  0
  5  8  1  0  0  0  0
  9 10  4  0  0  0  0
  9 12  1  0  0  0  0
 10 11  4  0  0  0  0
 12 13  1  0  0  0  0
 13 14  1  0  0  0  0
 13 19  1  0  0  0  0
 14 15  1  0  0  0  0
 15 16  1  0  0  0  0
 15 17  1  0  0  0  0
 15 18  1  0  0  0  0
 19 20  1  0  0  0  0
 19 24  1  0  0  0  0
 20 21  1  0  0  0  0
 21 22  1  0  0  0  0
 22 23  1  0  0  0  0
 23 24  1  0  0  0  0
M  END
>  <Name_Molregno>
347498

>  <Norepinephrine transporter>
8.38

>  <Serotonin transporter>
8.4

$$$$
347504
  Marvin  02231216192D 0   1.00000     0.00000     0

 25 26  0  0  0  0  0  0  0  0999 V2000
   -3.6959   -2.3026    0.0000 F   0  0  0  0  0  0  0  0  0
   -3.6959   -1.4776    0.0000 C   0  0  0  0  0  0  0  0  0
   -2.8709   -1.4776    0.0000 F   0  0  0  0  0  0  0  0  0
   -4.5209   -1.4776    0.0000 F   0  0  0  0  0  0  0  0  0
   -3.6959   -0.6526    0.0000 C   0  0  0  0  0  0  0  0  0
   -4.4104   -0.2401    0.0000 C   0  0  0  0  0  0  0  0  0
   -4.4104    0.5849    0.0000 C   0  0  0  0  0  0  0  0  0
   -3.6959    0.9974    0.0000 C   0  0  0  0  0  0  0  0  0
   -2.9815    0.5849    0.0000 C   0  0  0  0  0  0  0  0  0
   -2.9815   -0.2401    0.0000 C   0  0  0  0  0  0  0  0  0
   -2.2670   -0.6526    0.0000 C   0  0  0  0  0  0  0  0  0
   -1.5525   -0.2401    0.0000 N   0  0  0  0  0  0  0  0  0
   -0.8380   -0.6526    0.0000 C   0  0  0  0  0  0  0  0  0
   -0.1236   -0.2401    0.0000 C   0  0  0  0  0  0  0  0  0
    0.5909   -0.6526    0.0000 O   0  0  0  0  0  0  0  0  0
    1.3054   -0.2401    0.0000 C   0  0  0  0  0  0  0  0  0
    2.0198    0.1724    0.0000 F   0  0  0  0  0  0  0  0  0
    1.7179   -0.9545    0.0000 F   0  0  0  0  0  0  0  0  0
    0.8929    0.4744    0.0000 F   0  0  0  0  0  0  0  0  0
   -1.5525    0.5849    0.0000 C   0  0  0  0  0  0  0  0  0
   -2.2670    0.9974    0.0000 C   0  0  0  0  0  0  0  0  0
   -2.2670    1.8224    0.0000 C   0  0  0  0  0  0  0  0  0
   -1.5525    2.2349    0.0000 N   0  0  0  0  0  0  0  0  0
   -0.8380    1.8224    0.0000 C   0  0  0  0  0  0  0  0  0
   -0.8380    0.9974    0.0000 C   0  0  0  0  0  0  0  0  0
  1  2  1  0  0  0  0
  2  3  1  0  0  0  0
  2  4  1  0  0  0  0
  2  5  1  0  0  0  0
  5  6  4  0  0  0  0
  5 10  4  0  0  0  0
  6  7  4  0  0  0  0
  7  8  4  0  0  0  0
  8  9  4  0  0  0  0
  9 10  4  0  0  0  0
 10 11  1  0  0  0  0
 11 12  1  0  0  0  0
 12 13  1  0  0  0  0
 12 20  1  0  0  0  0
 13 14  1  0  0  0  0
 14 15  1  0  0  0  0
 15 16  1  0  0  0  0
 16 17  1  0  0  0  0
 16 18  1  0  0  0  0
 16 19  1  0  0  0  0
 20 21  1  0  0  0  0
 20 25  1  0  0  0  0
 21 22  1  0  0  0  0
 22 23  1  0  0  0  0
 23 24  1  0  0  0  0
 24 25  1  0  0  0  0
M  END
>  <Name_Molregno>
347504

>  <Norepinephrine transporter>
7.29

>  <Serotonin transporter>
7.77

$$$$
347877
  Marvin  02231216192D 0   1.00000     0.00000     0

 31 33  0  0  0  0  0  0  0  0999 V2000
    6.6753   -0.6471    0.0000 S   0  0  0  0  0  0  0  0  0
    6.9453   -1.4267    0.0000 O   0  0  0  0  0  0  0  0  0
    6.4053    0.1325    0.0000 O   0  0  0  0  0  0  0  0  0
    5.8958   -0.9171    0.0000 N   0  0  0  0  0  0  0  0  0
    5.2721   -0.3771    0.0000 C   0  0  0  0  0  0  0  0  0
    4.4926   -0.6471    0.0000 C   0  0  0  0  0  0  0  0  0
    3.8689   -0.1070    0.0000 C   0  0  0  0  0  0  0  0  0
    3.0894   -0.3771    0.0000 C   0  0  0  0  0  0  0  0  0
    2.4657    0.1630    0.0000 N   0  0  0  0  0  0  0  0  0
    1.6862   -0.1070    0.0000 C   0  0  0  0  0  0  0  0  0
    1.0625    0.4331    0.0000 C   0  0  0  0  0  0  0  0  0
    1.2184    1.2432    0.0000 N   0  0  0  0  0  0  0  0  0
    1.9980    1.5133    0.0000 C   0  0  0  0  0  0  0  0  0
    2.6216    0.9732    0.0000 C   0  0  0  0  0  0  0  0  0
    0.5948    1.7833    0.0000 C   0  0  0  0  0  0  0  0  0
   -0.1848    1.5133    0.0000 C   0  0  0  0  0  0  0  0  0
   -0.8084    2.0533    0.0000 C   0  0  0  0  0  0  0  0  0
   -1.5879    1.7833    0.0000 N   0  0  0  0  0  0  0  0  0
   -2.2116    2.3234    0.0000 C   0  0  0  0  0  0  0  0  0
   -2.9911    2.0533    0.0000 O   0  0  0  0  0  0  0  0  0
   -2.0557    3.1335    0.0000 C   0  0  0  0  0  0  0  0  0
   -0.6525    2.8635    0.0000 C   0  0  0  0  0  0  0  0  0
    0.1271    3.1335    0.0000 C   0  0  0  0  0  0  0  0  0
    0.7507    2.5934    0.0000 C   0  0  0  0  0  0  0  0  0
    7.4549   -0.3771    0.0000 C   0  0  0  0  0  0  0  0  0
    8.0785   -0.9171    0.0000 C   0  0  0  0  0  0  0  0  0
    8.8580   -0.6471    0.0000 C   0  0  0  0  0  0  0  0  0
    9.4817   -1.1872    0.0000 C   0  0  0  0  0  0  0  0  0
    9.3258   -1.9973    0.0000 C   0  0  0  0  0  0  0  0  0
    8.5462   -2.2674    0.0000 C   0  0  0  0  0  0  0  0  0
    7.9226   -1.7273    0.0000 C   0  0  0  0  0  0  0  0  0
  1  2  2  0  0  0  0
  1  3  2  0  0  0  0
  1  4  1  0  0  0  0
  1 25  1  0  0  0  0
  4  5  1  0  0  0  0
  5  6  1  0  0  0  0
  6  7  1  0  0  0  0
  7  8  1  0  0  0  0
  8  9  1  0  0  0  0
  9 10  1  0  0  0  0
  9 14  1  0  0  0  0
 10 11  1  0  0  0  0
 11 12  1  0  0  0  0
 12 13  1  0  0  0  0
 12 15  1  0  0  0  0
 13 14  1  0  0  0  0
 15 16  4  0  0  0  0
 15 24  4  0  0  0  0
 16 17  4  0  0  0  0
 17 18  1  0  0  0  0
 17 22  4  0  0  0  0
 18 19  1  0  0  0  0
 19 20  2  0  0  0  0
 19 21  1  0  0  0  0
 22 23  4  0  0  0  0
 23 24  4  0  0  0  0
 25 26  1  0  0  0  0
 26 27  1  0  0  0  0
 26 31  1  0  0  0  0
 27 28  1  0  0  0  0
 28 29  1  0  0  0  0
 29 30  1  0  0  0  0
 30 31  1  0  0  0  0
M  END
>  <Name_Molregno>
347877

>  <5-HT1A>
8.29

>  <5-HT2A>
5.7

>  <5-HT2C>
5.3

>  <5-HT5>
5.3

>  <5-HT6>
5.3

>  <5-HT7>
6.15

>  <DOPAMINE D2>
5.7

>  <Dopamine transporter>
5.7

>  <Norepinephrine transporter>
5.7

$$$$
349376
  Marvin  02231216192D 0   1.00000     0.00000     0

 41 45  0  0  0  0  0  0  0  0999 V2000
   -2.4600    1.8818    0.0000 O   0  0  0  0  0  0  0  0  0
   -2.7149    1.0971    0.0000 C   0  0  0  0  0  0  0  0  0
   -3.5399    1.0971    0.0000 C   0  0  0  0  0  0  0  0  0
   -3.7949    1.8818    0.0000 C   0  0  0  0  0  0  0  0  0
   -3.1274    2.3667    0.0000 C   0  0  0  0  0  0  0  0  0
   -3.1274    3.1917    0.0000 O   0  0  0  0  0  0  0  0  0
   -3.8419    3.6042    0.0000 C   0  0  0  0  0  0  0  0  0
   -4.5564    3.1917    0.0000 C   0  0  0  0  0  0  0  0  0
   -5.2709    3.6042    0.0000 C   0  0  0  0  0  0  0  0  0
   -5.2709    4.4292    0.0000 C   0  0  0  0  0  0  0  0  0
   -4.5564    4.8417    0.0000 C   0  0  0  0  0  0  0  0  0
   -3.8419    4.4292    0.0000 C   0  0  0  0  0  0  0  0  0
   -3.1274    4.8417    0.0000 C   0  0  0  0  0  0  0  0  0
   -6.0555    4.6841    0.0000 C   0  0  0  0  0  0  0  0  0
   -6.5404    4.0167    0.0000 C   0  0  0  0  0  0  0  0  0
   -6.0555    3.3492    0.0000 C   0  0  0  0  0  0  0  0  0
   -5.8924    2.5405    0.0000 C   0  0  0  0  0  0  0  0  0
   -6.6628    2.7908    0.0000 C   0  0  0  0  0  0  0  0  0
   -2.2300    0.4297    0.0000 C   0  0  0  0  0  0  0  0  0
   -2.5656   -0.3240    0.0000 O   0  0  0  0  0  0  0  0  0
   -1.4095    0.5159    0.0000 N   0  0  0  0  0  0  0  0  0
   -0.9246   -0.1515    0.0000 C   0  0  0  0  0  0  0  0  0
   -0.1041   -0.0653    0.0000 C   0  0  0  0  0  0  0  0  0
    0.2314    0.6884    0.0000 O   0  0  0  0  0  0  0  0  0
    1.0519    0.7746    0.0000 C   0  0  0  0  0  0  0  0  0
    0.3808   -0.7327    0.0000 N   0  0  0  0  0  0  0  0  0
    0.0452   -1.4864    0.0000 C   0  0  0  0  0  0  0  0  0
   -0.7753   -1.5726    0.0000 N   0  0  0  0  0  0  0  0  0
   -1.2602   -0.9052    0.0000 C   0  0  0  0  0  0  0  0  0
   -2.0807   -0.9914    0.0000 O   0  0  0  0  0  0  0  0  0
   -2.4162   -1.7451    0.0000 C   0  0  0  0  0  0  0  0  0
    0.5302   -2.1538    0.0000 N   0  0  0  0  0  0  0  0  0
    1.3506   -2.0676    0.0000 C   0  0  0  0  0  0  0  0  0
    1.8356   -2.7350    0.0000 C   0  0  0  0  0  0  0  0  0
    2.6560   -2.6488    0.0000 C   0  0  0  0  0  0  0  0  0
    3.1410   -3.3162    0.0000 N   0  0  0  0  0  0  0  0  0
    3.9614   -3.2300    0.0000 C   0  0  0  0  0  0  0  0  0
    4.4464   -3.8974    0.0000 C   0  0  0  0  0  0  0  0  0
    4.1108   -4.6511    0.0000 O   0  0  0  0  0  0  0  0  0
    3.2903   -4.7373    0.0000 C   0  0  0  0  0  0  0  0  0
    2.8054   -4.0699    0.0000 C   0  0  0  0  0  0  0  0  0
  1  2  4  0  0  0  0
  1  5  4  0  0  0  0
  2  3  4  0  0  0  0
  2 19  1  0  0  0  0
  3  4  4  0  0  0  0
  4  5  4  0  0  0  0
  5  6  1  0  0  0  0
  6  7  1  0  0  0  0
  7  8  4  0  0  0  0
  7 12  4  0  0  0  0
  8  9  4  0  0  0  0
  9 10  4  0  0  0  0
  9 16  1  0  0  0  0
 10 11  4  0  0  0  0
 10 14  1  0  0  0  0
 11 12  4  0  0  0  0
 12 13  1  0  0  0  0
 14 15  1  0  0  0  0
 15 16  1  0  0  0  0
 16 17  1  0  0  0  0
 16 18  1  0  0  0  0
 19 20  2  0  0  0  0
 19 21  1  0  0  0  0
 21 22  1  0  0  0  0
 22 23  4  0  0  0  0
 22 29  4  0  0  0  0
 23 24  1  0  0  0  0
 23 26  4  0  0  0  0
 24 25  1  0  0  0  0
 26 27  4  0  0  0  0
 27 28  4  0  0  0  0
 27 32  1  0  0  0  0
 28 29  4  0  0  0  0
 29 30  1  0  0  0  0
 30 31  1  0  0  0  0
 32 33  1  0  0  0  0
 33 34  1  0  0  0  0
 34 35  1  0  0  0  0
 35 36  1  0  0  0  0
 36 37  1  0  0  0  0
 36 41  1  0  0  0  0
 37 38  1  0  0  0  0
 38 39  1  0  0  0  0
 39 40  1  0  0  0  0
 40 41  1  0  0  0  0
M  END
>  <Name_Molregno>
349376

>  <5-HT2A>
6.23

>  <5-HT2C>
6.02

>  <5-HT7>
5.76

>  <DOPAMINE D1>
5.79

>  <DOPAMINE D3>
5.93

>  <DOPAMINE D4>
5.6

>  <Dopamine transporter>
5.74

>  <HISTAMINE H2>
5.91

>  <Muscarinic acetylcholine receptor M1>
5.39

>  <Muscarinic acetylcholine receptor M4>
5.43

>  <Norepinephrine transporter>
5.29

>  <Serotonin transporter>
5.84

$$$$
353283
  Marvin  02231216192D 0   1.00000     0.00000     0

 29 32  0  0  1  0  0  0  0  0999 V2000
    0.1190    0.0530    0.0000 O   0  0  0  0  0  0  0  0  0
   -0.1734    0.8306    0.0000 C   0  0  0  0  0  0  0  0  0
   -0.1848    1.6722    0.0000 C   0  0  0  0  0  0  0  0  0
    0.0286    2.3083    0.0000 C   0  0  0  0  0  0  0  0  0
    0.3412    1.5405    0.0000 C   0  0  0  0  0  0  0  0  0
   -0.4568    1.0650    0.0000 C   0  0  0  0  0  0  0  0  0
   -0.7021    0.3959    0.0000 N   0  0  0  0  0  0  0  0  0
   -1.0111    1.1609    0.0000 C   0  0  0  0  0  0  0  0  0
   -1.8280    1.4930    0.0000 C   0  0  0  0  0  0  0  0  0
   -1.1022    1.4989    0.0000 C   0  0  0  0  0  0  0  0  0
   -0.6886   -0.4290    0.0000 C   0  0  0  0  0  0  0  0  0
    0.7366    3.0634    0.0000 C   0  0  0  0  0  0  0  0  0
    1.0967    3.8232    0.0000 C   0  0  0  0  0  0  0  0  0
    1.9144    3.9219    0.0000 C   0  0  0  0  0  0  0  0  0
    2.4600    3.2764    0.0000 C   0  0  0  0  0  0  0  0  0
    3.2914    2.9907    0.0000 N   0  0  0  0  0  0  0  0  0
    4.0124    2.5376    0.0000 C   0  0  0  0  0  0  0  0  0
    4.6040    3.1126    0.0000 O   0  0  0  0  0  0  0  0  0
    4.4578    1.7824    0.0000 C   0  0  0  0  0  0  0  0  0
    4.5377    0.9161    0.0000 C   0  0  0  0  0  0  0  0  0
    4.2659    0.0685    0.0000 C   0  0  0  0  0  0  0  0  0
    3.7294   -0.5795    0.0000 C   0  0  0  0  0  0  0  0  0
    3.0090   -0.9960    0.0000 C   0  0  0  0  0  0  0  0  0
    2.1905   -1.1404    0.0000 C   0  0  0  0  0  0  0  0  0
    1.3723   -0.9962    0.0000 C   0  0  0  0  0  0  0  0  0
    0.6531   -0.5814    0.0000 C   0  0  0  0  0  0  0  0  0
    0.1235   -1.2140    0.0000 O   0  0  0  0  0  0  0  0  0
    2.0979    2.5284    0.0000 C   0  0  0  0  0  0  0  0  0
    1.2842    2.4281    0.0000 C   0  0  0  0  0  0  0  0  0
  1  2  1  0  0  0  0
  1 26  1  0  0  0  0
  2  3  1  0  0  0  0
  3  4  1  0  0  0  0
  3  8  1  0  0  0  0
  4  5  1  0  0  0  0
  4 12  1  0  0  0  0
  5  6  1  0  0  0  0
  6  7  1  0  0  0  0
  6 10  1  0  0  0  0
  7  8  1  0  0  0  0
  7 11  1  0  0  0  0
  8  9  1  0  0  0  0
  9 10  1  0  0  0  0
 12 13  4  0  0  0  0
 12 29  4  0  0  0  0
 13 14  4  0  0  0  0
 14 15  4  0  0  0  0
 15 16  1  0  0  0  0
 15 28  4  0  0  0  0
 16 17  1  0  0  0  0
 17 18  2  0  0  0  0
 17 19  1  0  0  0  0
 19 20  1  0  0  0  0
 20 21  1  0  0  0  0
 21 22  1  0  0  0  0
 22 23  1  0  0  0  0
 23 24  1  0  0  0  0
 24 25  1  0  0  0  0
 25 26  1  0  0  0  0
 26 27  2  0  0  0  0
 28 29  4  0  0  0  0
M  END
>  <Name_Molregno>
353283

>  <Norepinephrine transporter>
5.7

>  <Serotonin transporter>
5.7

$$$$
353284
  Marvin  02231216192D 0   1.00000     0.00000     0

 30 33  0  0  1  0  0  0  0  0999 V2000
   -0.3722    0.0738    0.0000 O   0  0  0  0  0  0  0  0  0
   -0.6521    0.8615    0.0000 C   0  0  0  0  0  0  0  0  0
   -0.6603    1.7079    0.0000 C   0  0  0  0  0  0  0  0  0
   -0.4545    2.3466    0.0000 C   0  0  0  0  0  0  0  0  0
   -0.1328    1.5826    0.0000 C   0  0  0  0  0  0  0  0  0
   -0.9250    1.0975    0.0000 C   0  0  0  0  0  0  0  0  0
   -1.1622    0.4255    0.0000 N   0  0  0  0  0  0  0  0  0
   -1.4804    1.1867    0.0000 C   0  0  0  0  0  0  0  0  0
   -2.3012    1.5090    0.0000 C   0  0  0  0  0  0  0  0  0
   -1.5755    1.5236    0.0000 C   0  0  0  0  0  0  0  0  0
   -1.1388   -0.3991    0.0000 C   0  0  0  0  0  0  0  0  0
    0.2529    3.1143    0.0000 C   0  0  0  0  0  0  0  0  0
    0.5637    3.8996    0.0000 C   0  0  0  0  0  0  0  0  0
    1.3696    4.0839    0.0000 C   0  0  0  0  0  0  0  0  0
    1.9353    3.4464    0.0000 C   0  0  0  0  0  0  0  0  0
    2.7716    3.2308    0.0000 N   0  0  0  0  0  0  0  0  0
    3.5297    2.8725    0.0000 C   0  0  0  0  0  0  0  0  0
    4.0290    3.5293    0.0000 O   0  0  0  0  0  0  0  0  0
    4.0896    2.2242    0.0000 C   0  0  0  0  0  0  0  0  0
    4.3366    1.3932    0.0000 C   0  0  0  0  0  0  0  0  0
    4.2419    0.5022    0.0000 C   0  0  0  0  0  0  0  0  0
    3.8477   -0.2649    0.0000 C   0  0  0  0  0  0  0  0  0
    3.2335   -0.8341    0.0000 C   0  0  0  0  0  0  0  0  0
    2.4708   -1.1695    0.0000 C   0  0  0  0  0  0  0  0  0
    1.6415   -1.2383    0.0000 C   0  0  0  0  0  0  0  0  0
    0.8354   -1.0344    0.0000 C   0  0  0  0  0  0  0  0  0
    0.1394   -0.5807    0.0000 C   0  0  0  0  0  0  0  0  0
   -0.4184   -1.1885    0.0000 O   0  0  0  0  0  0  0  0  0
    1.6486    2.6562    0.0000 C   0  0  0  0  0  0  0  0  0
    0.8411    2.5188    0.0000 C   0  0  0  0  0  0  0  0  0
  1  2  1  0  0  0  0
  1 27  1  0  0  0  0
  2  3  1  0  0  0  0
  3  4  1  0  0  0  0
  3  8  1  0  0  0  0
  4  5  1  0  0  0  0
  4 12  1  0  0  0  0
  5  6  1  0  0  0  0
  6  7  1  0  0  0  0
  6 10  1  0  0  0  0
  7  8  1  0  0  0  0
  7 11  1  0  0  0  0
  8  9  1  0  0  0  0
  9 10  1  0  0  0  0
 12 13  4  0  0  0  0
 12 30  4  0  0  0  0
 13 14  4  0  0  0  0
 14 15  4  0  0  0  0
 15 16  1  0  0  0  0
 15 29  4  0  0  0  0
 16 17  1  0  0  0  0
 17 18  2  0  0  0  0
 17 19  1  0  0  0  0
 19 20  1  0  0  0  0
 20 21  1  0  0  0  0
 21 22  1  0  0  0  0
 22 23  1  0  0  0  0
 23 24  1  0  0  0  0
 24 25  1  0  0  0  0
 25 26  1  0  0  0  0
 26 27  1  0  0  0  0
 27 28  2  0  0  0  0
 29 30  4  0  0  0  0
M  END
>  <Name_Molregno>
353284

>  <Norepinephrine transporter>
5.85

>  <Serotonin transporter>
8.72

$$$$
353336
  Marvin  02231216192D 0   1.00000     0.00000     0

 32 35  0  0  1  0  0  0  0  0999 V2000
   -2.4089    0.0343    0.0000 O   0  0  0  0  0  0  0  0  0
   -2.6622    0.8310    0.0000 C   0  0  0  0  0  0  0  0  0
   -2.6674    1.6721    0.0000 C   0  0  0  0  0  0  0  0  0
   -2.4786    2.3160    0.0000 C   0  0  0  0  0  0  0  0  0
   -2.1368    1.5607    0.0000 C   0  0  0  0  0  0  0  0  0
   -2.9159    1.0549    0.0000 C   0  0  0  0  0  0  0  0  0
   -3.1353    0.3769    0.0000 N   0  0  0  0  0  0  0  0  0
   -3.4735    1.1294    0.0000 C   0  0  0  0  0  0  0  0  0
   -4.3025    1.4300    0.0000 C   0  0  0  0  0  0  0  0  0
   -3.5775    1.4637    0.0000 C   0  0  0  0  0  0  0  0  0
   -3.0902   -0.4469    0.0000 C   0  0  0  0  0  0  0  0  0
   -1.8276    3.1340    0.0000 C   0  0  0  0  0  0  0  0  0
   -1.6250    3.9545    0.0000 C   0  0  0  0  0  0  0  0  0
   -0.8359    4.2406    0.0000 C   0  0  0  0  0  0  0  0  0
   -0.1816    3.6849    0.0000 C   0  0  0  0  0  0  0  0  0
    0.6862    3.6149    0.0000 N   0  0  0  0  0  0  0  0  0
    1.5195    3.4051    0.0000 C   0  0  0  0  0  0  0  0  0
    1.8654    4.1541    0.0000 O   0  0  0  0  0  0  0  0  0
    2.2205    2.9060    0.0000 C   0  0  0  0  0  0  0  0  0
    2.6918    2.1647    0.0000 C   0  0  0  0  0  0  0  0  0
    2.8761    1.2990    0.0000 C   0  0  0  0  0  0  0  0  0
    2.7634    0.4313    0.0000 C   0  0  0  0  0  0  0  0  0
    2.4043   -0.3197    0.0000 C   0  0  0  0  0  0  0  0  0
    1.8385   -0.9308    0.0000 C   0  0  0  0  0  0  0  0  0
    1.1192   -1.3461    0.0000 C   0  0  0  0  0  0  0  0  0
    0.3093   -1.5309    0.0000 C   0  0  0  0  0  0  0  0  0
   -0.5189   -1.4689    0.0000 C   0  0  0  0  0  0  0  0  0
   -1.2918   -1.1658    0.0000 C   0  0  0  0  0  0  0  0  0
   -1.9405   -0.6494    0.0000 C   0  0  0  0  0  0  0  0  0
   -2.5444   -1.2115    0.0000 O   0  0  0  0  0  0  0  0  0
   -0.3791    2.8652    0.0000 C   0  0  0  0  0  0  0  0  0
   -1.1705    2.6201    0.0000 C   0  0  0  0  0  0  0  0  0
  1  2  1  0  0  0  0
  1 29  1  0  0  0  0
  2  3  1  0  0  0  0
  3  4  1  0  0  0  0
  3  8  1  0  0  0  0
  4  5  1  0  0  0  0
  4 12  1  0  0  0  0
  5  6  1  0  0  0  0
  6  7  1  0  0  0  0
  6 10  1  0  0  0  0
  7  8  1  0  0  0  0
  7 11  1  0  0  0  0
  8  9  1  0  0  0  0
  9 10  1  0  0  0  0
 12 13  4  0  0  0  0
 12 32  4  0  0  0  0
 13 14  4  0  0  0  0
 14 15  4  0  0  0  0
 15 16  1  0  0  0  0
 15 31  4  0  0  0  0
 16 17  1  0  0  0  0
 17 18  2  0  0  0  0
 17 19  1  0  0  0  0
 19 20  1  0  0  0  0
 20 21  1  0  0  0  0
 21 22  1  0  0  0  0
 22 23  1  0  0  0  0
 23 24  1  0  0  0  0
 24 25  1  0  0  0  0
 25 26  1  0  0  0  0
 26 27  1  0  0  0  0
 27 28  1  0  0  0  0
 28 29  1  0  0  0  0
 29 30  2  0  0  0  0
 31 32  4  0  0  0  0
M  END
>  <Name_Molregno>
353336

>  <Norepinephrine transporter>
5.94

>  <Serotonin transporter>
6.54

$$$$
353337
  Marvin  02231216192D 0   1.00000     0.00000     0

 30 34  0  0  1  0  0  0  0  0999 V2000
   -2.4493   -0.0525    0.0000 O   0  0  0  0  0  0  0  0  0
   -2.8289    0.7312    0.0000 C   0  0  0  0  0  0  0  0  0
   -2.8706    1.5837    0.0000 C   0  0  0  0  0  0  0  0  0
   -2.6500    2.2174    0.0000 C   0  0  0  0  0  0  0  0  0
   -2.3462    1.4461    0.0000 C   0  0  0  0  0  0  0  0  0
   -3.1495    0.9796    0.0000 C   0  0  0  0  0  0  0  0  0
   -3.4024    0.3134    0.0000 N   0  0  0  0  0  0  0  0  0
   -3.7027    1.0818    0.0000 C   0  0  0  0  0  0  0  0  0
   -4.5158    1.4232    0.0000 C   0  0  0  0  0  0  0  0  0
   -3.7900    1.4209    0.0000 C   0  0  0  0  0  0  0  0  0
   -3.3983   -0.5116    0.0000 C   0  0  0  0  0  0  0  0  0
   -1.9273    2.9631    0.0000 C   0  0  0  0  0  0  0  0  0
   -1.5287    3.7091    0.0000 C   0  0  0  0  0  0  0  0  0
   -0.6763    3.7421    0.0000 C   0  0  0  0  0  0  0  0  0
   -0.1747    3.0469    0.0000 C   0  0  0  0  0  0  0  0  0
    0.6339    2.6955    0.0000 N   0  0  0  0  0  0  0  0  0
    1.2999    2.1181    0.0000 C   0  0  0  0  0  0  0  0  0
    1.9799    2.5853    0.0000 O   0  0  0  0  0  0  0  0  0
    1.6005    1.2877    0.0000 C   0  0  0  0  0  0  0  0  0
    1.4117    0.4068    0.0000 C   0  0  0  0  0  0  0  0  0
    1.4562   -0.4446    0.0000 C   0  0  0  0  0  0  0  0  0
    0.7505   -0.9443    0.0000 C   0  0  0  0  0  0  0  0  0
   -0.0402   -0.6198    0.0000 C   0  0  0  0  0  0  0  0  0
   -0.9108   -0.7415    0.0000 C   0  0  0  0  0  0  0  0  0
   -1.7759   -0.5935    0.0000 C   0  0  0  0  0  0  0  0  0
   -2.1147   -1.3458    0.0000 O   0  0  0  0  0  0  0  0  0
   -0.0510    0.2148    0.0000 C   0  0  0  0  0  0  0  0  0
    0.6336    0.6897    0.0000 C   0  0  0  0  0  0  0  0  0
   -0.6089    2.3322    0.0000 C   0  0  0  0  0  0  0  0  0
   -1.4407    2.2900    0.0000 C   0  0  0  0  0  0  0  0  0
  1  2  1  0  0  0  0
  1 25  1  0  0  0  0
  2  3  1  0  0  0  0
  3  4  1  0  0  0  0
  3  8  1  0  0  0  0
  4  5  1  0  0  0  0
  4 12  1  0  0  0  0
  5  6  1  0  0  0  0
  6  7  1  0  0  0  0
  6 10  1  0  0  0  0
  7  8  1  0  0  0  0
  7 11  1  0  0  0  0
  8  9  1  0  0  0  0
  9 10  1  0  0  0  0
 12 13  4  0  0  0  0
 12 30  4  0  0  0  0
 13 14  4  0  0  0  0
 14 15  4  0  0  0  0
 15 16  1  0  0  0  0
 15 29  4  0  0  0  0
 16 17  1  0  0  0  0
 17 18  2  0  0  0  0
 17 19  1  0  0  0  0
 19 20  1  0  0  0  0
 20 21  4  0  0  0  0
 20 28  4  0  0  0  0
 21 22  4  0  0  0  0
 22 23  4  0  0  0  0
 23 24  1  0  0  0  0
 23 27  4  0  0  0  0
 24 25  1  0  0  0  0
 25 26  2  0  0  0  0
 27 28  4  0  0  0  0
 29 30  4  0  0  0  0
M  END
>  <Name_Molregno>
353337

>  <Norepinephrine transporter>
5.7

>  <Serotonin transporter>
5.7

$$$$
353381
  Marvin  02231216192D 0   1.00000     0.00000     0

 28 31  0  0  1  0  0  0  0  0999 V2000
    0.0287   -2.3096    0.0000 O   0  0  0  0  0  0  0  0  0
   -0.2933   -1.5287    0.0000 C   0  0  0  0  0  0  0  0  0
   -0.3056   -0.6836    0.0000 C   0  0  0  0  0  0  0  0  0
   -0.0624   -0.0582    0.0000 C   0  0  0  0  0  0  0  0  0
    0.2135   -0.8400    0.0000 C   0  0  0  0  0  0  0  0  0
   -0.6061   -1.2772    0.0000 C   0  0  0  0  0  0  0  0  0
   -0.8828   -1.9339    0.0000 N   0  0  0  0  0  0  0  0  0
   -1.1552   -1.1551    0.0000 C   0  0  0  0  0  0  0  0  0
   -1.9555   -0.7847    0.0000 C   0  0  0  0  0  0  0  0  0
   -1.2302   -0.8132    0.0000 C   0  0  0  0  0  0  0  0  0
   -0.9084   -2.7585    0.0000 C   0  0  0  0  0  0  0  0  0
    0.7193    0.5861    0.0000 C   0  0  0  0  0  0  0  0  0
    1.1861    1.2914    0.0000 C   0  0  0  0  0  0  0  0  0
    2.0221    1.2527    0.0000 C   0  0  0  0  0  0  0  0  0
    2.4264    0.5142    0.0000 C   0  0  0  0  0  0  0  0  0
    3.1599    0.0800    0.0000 N   0  0  0  0  0  0  0  0  0
    3.6898   -0.5835    0.0000 C   0  0  0  0  0  0  0  0  0
    4.4408   -0.2420    0.0000 O   0  0  0  0  0  0  0  0  0
    3.8420   -1.4216    0.0000 C   0  0  0  0  0  0  0  0  0
    3.5886   -2.2256    0.0000 C   0  0  0  0  0  0  0  0  0
    3.0255   -2.8516    0.0000 C   0  0  0  0  0  0  0  0  0
    3.5136   -3.5167    0.0000 O   0  0  0  0  0  0  0  0  0
    2.2592   -3.2011    0.0000 C   0  0  0  0  0  0  0  0  0
    1.4156   -3.2188    0.0000 C   0  0  0  0  0  0  0  0  0
    0.6289   -2.9009    0.0000 C   0  0  0  0  0  0  0  0  0
    0.1761   -3.5906    0.0000 O   0  0  0  0  0  0  0  0  0
    1.9574   -0.1757    0.0000 C   0  0  0  0  0  0  0  0  0
    1.1350   -0.1406    0.0000 C   0  0  0  0  0  0  0  0  0
  1  2  1  0  0  0  0
  1 25  1  0  0  0  0
  2  3  1  0  0  0  0
  3  4  1  0  0  0  0
  3  8  1  0  0  0  0
  4  5  1  0  0  0  0
  4 12  1  0  0  0  0
  5  6  1  0  0  0  0
  6  7  1  0  0  0  0
  6 10  1  0  0  0  0
  7  8  1  0  0  0  0
  7 11  1  0  0  0  0
  8  9  1  0  0  0  0
  9 10  1  0  0  0  0
 12 13  4  0  0  0  0
 12 28  4  0  0  0  0
 13 14  4  0  0  0  0
 14 15  4  0  0  0  0
 15 16  1  0  0  0  0
 15 27  4  0  0  0  0
 16 17  1  0  0  0  0
 17 18  2  0  0  0  0
 17 19  1  0  0  0  0
 19 20  1  0  0  0  0
 20 21  1  0  0  0  0
 21 22  2  0  0  0  0
 21 23  1  0  0  0  0
 23 24  1  0  0  0  0
 24 25  1  0  0  0  0
 25 26  2  0  0  0  0
 27 28  4  0  0  0  0
M  END
>  <Name_Molregno>
353381

>  <Norepinephrine transporter>
6.15

>  <Serotonin transporter>
5.91

$$$$
353382
  Marvin  02231216192D 0   1.00000     0.00000     0

 27 30  0  0  1  0  0  0  0  0999 V2000
   -0.3780   -0.1394    0.0000 S   0  0  0  0  0  0  0  0  0
   -0.7062    0.6366    0.0000 C   0  0  0  0  0  0  0  0  0
   -0.7048    1.4813    0.0000 C   0  0  0  0  0  0  0  0  0
   -0.3928    2.2668    0.0000 C   0  0  0  0  0  0  0  0  0
   -1.0870    2.7126    0.0000 O   0  0  0  0  0  0  0  0  0
    0.1950    2.8807    0.0000 N   0  0  0  0  0  0  0  0  0
    1.0400    3.0476    0.0000 C   0  0  0  0  0  0  0  0  0
    1.7412    3.5206    0.0000 C   0  0  0  0  0  0  0  0  0
    2.4988    3.1649    0.0000 C   0  0  0  0  0  0  0  0  0
    2.5896    2.3279    0.0000 C   0  0  0  0  0  0  0  0  0
    3.1012    1.6460    0.0000 C   0  0  0  0  0  0  0  0  0
    3.3312    0.8496    0.0000 C   0  0  0  0  0  0  0  0  0
    4.2522    0.9703    0.0000 C   0  0  0  0  0  0  0  0  0
    4.8591    0.5968    0.0000 N   0  0  0  0  0  0  0  0  0
    4.6281    1.3888    0.0000 C   0  0  0  0  0  0  0  0  0
    3.6627    1.2786    0.0000 C   0  0  0  0  0  0  0  0  0
    5.0639    2.1555    0.0000 C   0  0  0  0  0  0  0  0  0
    4.4903    1.7107    0.0000 C   0  0  0  0  0  0  0  0  0
    5.3594   -0.0592    0.0000 C   0  0  0  0  0  0  0  0  0
    3.1567   -0.0023    0.0000 C   0  0  0  0  0  0  0  0  0
    2.6149   -0.6481    0.0000 O   0  0  0  0  0  0  0  0  0
    1.8551   -1.0109    0.0000 C   0  0  0  0  0  0  0  0  0
    2.0515   -1.8122    0.0000 O   0  0  0  0  0  0  0  0  0
    1.0134   -1.0405    0.0000 C   0  0  0  0  0  0  0  0  0
    0.2272   -0.7341    0.0000 C   0  0  0  0  0  0  0  0  0
    1.8923    1.8700    0.0000 C   0  0  0  0  0  0  0  0  0
    1.1460    2.2172    0.0000 C   0  0  0  0  0  0  0  0  0
  1  2  1  0  0  0  0
  1 25  1  0  0  0  0
  2  3  1  0  0  0  0
  3  4  1  0  0  0  0
  4  5  2  0  0  0  0
  4  6  1  0  0  0  0
  6  7  1  0  0  0  0
  7  8  4  0  0  0  0
  7 27  4  0  0  0  0
  8  9  4  0  0  0  0
  9 10  4  0  0  0  0
 10 11  1  0  0  0  0
 10 26  4  0  0  0  0
 11 12  1  0  0  0  0
 11 16  1  0  0  0  0
 12 13  1  0  0  0  0
 12 20  1  0  0  0  0
 13 14  1  0  0  0  0
 13 18  1  0  0  0  0
 14 15  1  0  0  0  0
 14 19  1  0  0  0  0
 15 16  1  0  0  0  0
 15 17  1  0  0  0  0
 17 18  1  0  0  0  0
 20 21  1  0  0  0  0
 21 22  1  0  0  0  0
 22 23  2  0  0  0  0
 22 24  1  0  0  0  0
 24 25  1  0  0  0  0
 26 27  4  0  0  0  0
M  END
>  <Name_Molregno>
353382

>  <Norepinephrine transporter>
6.3

>  <Serotonin transporter>
5.78

$$$$
353407
  Marvin  02231216192D 0   1.00000     0.00000     0

 39 45  0  0  1  0  0  0  0  0999 V2000
   -2.9659    0.9854    0.0000 O   0  0  0  0  0  0  0  0  0
   -3.2879    1.7663    0.0000 C   0  0  0  0  0  0  0  0  0
   -3.3002    2.6115    0.0000 C   0  0  0  0  0  0  0  0  0
   -3.0569    3.2368    0.0000 C   0  0  0  0  0  0  0  0  0
   -2.7811    2.4551    0.0000 C   0  0  0  0  0  0  0  0  0
   -3.6007    2.0179    0.0000 C   0  0  0  0  0  0  0  0  0
   -3.8774    1.3612    0.0000 N   0  0  0  0  0  0  0  0  0
   -4.1498    2.1399    0.0000 C   0  0  0  0  0  0  0  0  0
   -4.9501    2.5104    0.0000 C   0  0  0  0  0  0  0  0  0
   -4.2248    2.4819    0.0000 C   0  0  0  0  0  0  0  0  0
   -3.9030    0.5366    0.0000 C   0  0  0  0  0  0  0  0  0
   -2.2752    3.8811    0.0000 C   0  0  0  0  0  0  0  0  0
   -1.8085    4.5864    0.0000 C   0  0  0  0  0  0  0  0  0
   -0.9724    4.5477    0.0000 C   0  0  0  0  0  0  0  0  0
   -0.5682    3.8092    0.0000 C   0  0  0  0  0  0  0  0  0
    0.1654    3.3750    0.0000 N   0  0  0  0  0  0  0  0  0
    0.6952    2.7115    0.0000 C   0  0  0  0  0  0  0  0  0
    1.4462    3.0530    0.0000 O   0  0  0  0  0  0  0  0  0
    0.8474    1.8734    0.0000 C   0  0  0  0  0  0  0  0  0
    0.5940    1.0694    0.0000 C   0  0  0  0  0  0  0  0  0
    0.0309    0.4434    0.0000 C   0  0  0  0  0  0  0  0  0
   -0.7354    0.0940    0.0000 C   0  0  0  0  0  0  0  0  0
   -1.5790    0.0762    0.0000 C   0  0  0  0  0  0  0  0  0
   -2.3657    0.3941    0.0000 C   0  0  0  0  0  0  0  0  0
   -2.8185   -0.2955    0.0000 O   0  0  0  0  0  0  0  0  0
    0.8559    0.4479    0.0000 C   0  0  0  0  0  0  0  0  0
    1.1151   -0.3353    0.0000 C   0  0  0  0  0  0  0  0  0
    0.4503   -0.8238    0.0000 C   0  0  0  0  0  0  0  0  0
   -0.2197   -0.3426    0.0000 C   0  0  0  0  0  0  0  0  0
   -0.9716   -0.6822    0.0000 C   0  0  0  0  0  0  0  0  0
   -1.0534   -1.5031    0.0000 C   0  0  0  0  0  0  0  0  0
   -0.3833   -1.9844    0.0000 C   0  0  0  0  0  0  0  0  0
    0.3685   -1.6448    0.0000 C   0  0  0  0  0  0  0  0  0
    1.9230   -0.5024    0.0000 C   0  0  0  0  0  0  0  0  0
    2.4717    0.1136    0.0000 C   0  0  0  0  0  0  0  0  0
    2.2125    0.8969    0.0000 C   0  0  0  0  0  0  0  0  0
    1.4046    1.0640    0.0000 C   0  0  0  0  0  0  0  0  0
   -1.0372    3.1193    0.0000 C   0  0  0  0  0  0  0  0  0
   -1.8596    3.1544    0.0000 C   0  0  0  0  0  0  0  0  0
  1  2  1  0  0  0  0
  1 24  1  0  0  0  0
  2  3  1  0  0  0  0
  3  4  1  0  0  0  0
  3  8  1  0  0  0  0
  4  5  1  0  0  0  0
  4 12  1  0  0  0  0
  5  6  1  0  0  0  0
  6  7  1  0  0  0  0
  6 10  1  0  0  0  0
  7  8  1  0  0  0  0
  7 11  1  0  0  0  0
  8  9  1  0  0  0  0
  9 10  1  0  0  0  0
 12 13  4  0  0  0  0
 12 39  4  0  0  0  0
 13 14  4  0  0  0  0
 14 15  4  0  0  0  0
 15 16  1  0  0  0  0
 15 38  4  0  0  0  0
 16 17  1  0  0  0  0
 17 18  2  0  0  0  0
 17 19  1  0  0  0  0
 19 20  1  0  0  0  0
 20 21  1  0  0  0  0
 21 22  1  0  0  0  0
 21 26  1  0  0  0  0
 21 29  1  0  0  0  0
 22 23  1  0  0  0  0
 23 24  1  0  0  0  0
 24 25  2  0  0  0  0
 26 27  4  0  0  0  0
 26 37  4  0  0  0  0
 27 28  1  0  0  0  0
 27 34  4  0  0  0  0
 28 29  4  0  0  0  0
 28 33  4  0  0  0  0
 29 30  4  0  0  0  0
 30 31  4  0  0  0  0
 31 32  4  0  0  0  0
 32 33  4  0  0  0  0
 34 35  4  0  0  0  0
 35 36  4  0  0  0  0
 36 37  4  0  0  0  0
 38 39  4  0  0  0  0
M  END
>  <Name_Molregno>
353407

>  <Norepinephrine transporter>
6.31

$$$$
353551
  Marvin  02231216192D 0   1.00000     0.00000     0

 31 34  0  0  1  0  0  0  0  0999 V2000
    0.0716   -2.3919    0.0000 O   0  0  0  0  0  0  0  0  0
   -0.2083   -1.6042    0.0000 C   0  0  0  0  0  0  0  0  0
   -0.2164   -0.7578    0.0000 C   0  0  0  0  0  0  0  0  0
   -0.0107   -0.1191    0.0000 C   0  0  0  0  0  0  0  0  0
    0.3111   -0.8831    0.0000 C   0  0  0  0  0  0  0  0  0
   -0.4811   -1.3682    0.0000 C   0  0  0  0  0  0  0  0  0
   -0.7183   -2.0402    0.0000 N   0  0  0  0  0  0  0  0  0
   -1.0365   -1.2790    0.0000 C   0  0  0  0  0  0  0  0  0
   -1.8574   -0.9566    0.0000 C   0  0  0  0  0  0  0  0  0
   -1.1317   -0.9420    0.0000 C   0  0  0  0  0  0  0  0  0
   -0.6950   -2.8648    0.0000 C   0  0  0  0  0  0  0  0  0
    0.6968    0.6486    0.0000 C   0  0  0  0  0  0  0  0  0
    1.0076    1.4340    0.0000 C   0  0  0  0  0  0  0  0  0
    1.8135    1.6182    0.0000 C   0  0  0  0  0  0  0  0  0
    2.3791    0.9808    0.0000 C   0  0  0  0  0  0  0  0  0
    3.2155    0.7652    0.0000 N   0  0  0  0  0  0  0  0  0
    3.4960    1.5410    0.0000 C   0  0  0  0  0  0  0  0  0
    3.9736    0.4069    0.0000 C   0  0  0  0  0  0  0  0  0
    4.4729    1.0636    0.0000 O   0  0  0  0  0  0  0  0  0
    4.5334   -0.2415    0.0000 C   0  0  0  0  0  0  0  0  0
    4.7804   -1.0725    0.0000 C   0  0  0  0  0  0  0  0  0
    4.6858   -1.9635    0.0000 C   0  0  0  0  0  0  0  0  0
    4.2916   -2.7305    0.0000 C   0  0  0  0  0  0  0  0  0
    3.6774   -3.2997    0.0000 C   0  0  0  0  0  0  0  0  0
    2.9146   -3.6351    0.0000 C   0  0  0  0  0  0  0  0  0
    2.0854   -3.7039    0.0000 C   0  0  0  0  0  0  0  0  0
    1.2792   -3.5000    0.0000 C   0  0  0  0  0  0  0  0  0
    0.5833   -3.0463    0.0000 C   0  0  0  0  0  0  0  0  0
    0.0255   -3.6542    0.0000 O   0  0  0  0  0  0  0  0  0
    2.0925    0.1905    0.0000 C   0  0  0  0  0  0  0  0  0
    1.2849    0.0531    0.0000 C   0  0  0  0  0  0  0  0  0
  1  2  1  0  0  0  0
  1 28  1  0  0  0  0
  2  3  1  0  0  0  0
  3  4  1  0  0  0  0
  3  8  1  0  0  0  0
  4  5  1  0  0  0  0
  4 12  1  0  0  0  0
  5  6  1  0  0  0  0
  6  7  1  0  0  0  0
  6 10  1  0  0  0  0
  7  8  1  0  0  0  0
  7 11  1  0  0  0  0
  8  9  1  0  0  0  0
  9 10  1  0  0  0  0
 12 13  4  0  0  0  0
 12 31  4  0  0  0  0
 13 14  4  0  0  0  0
 14 15  4  0  0  0  0
 15 16  1  0  0  0  0
 15 30  4  0  0  0  0
 16 17  1  0  0  0  0
 16 18  1  0  0  0  0
 18 19  2  0  0  0  0
 18 20  1  0  0  0  0
 20 21  1  0  0  0  0
 21 22  1  0  0  0  0
 22 23  1  0  0  0  0
 23 24  1  0  0  0  0
 24 25  1  0  0  0  0
 25 26  1  0  0  0  0
 26 27  1  0  0  0  0
 27 28  1  0  0  0  0
 28 29  2  0  0  0  0
 30 31  4  0  0  0  0
M  END
>  <Name_Molregno>
353551

>  <Norepinephrine transporter>
5.7

>  <Serotonin transporter>
5.7

$$$$
353552
  Marvin  02231216192D 0   1.00000     0.00000     0

 30 33  0  0  1  0  0  0  0  0999 V2000
    0.0630   -0.1860    0.0000 O   0  0  0  0  0  0  0  0  0
   -0.2169    0.6017    0.0000 C   0  0  0  0  0  0  0  0  0
   -0.2251    1.4481    0.0000 C   0  0  0  0  0  0  0  0  0
   -0.0193    2.0868    0.0000 C   0  0  0  0  0  0  0  0  0
    0.3024    1.3228    0.0000 C   0  0  0  0  0  0  0  0  0
   -0.4898    0.8377    0.0000 C   0  0  0  0  0  0  0  0  0
   -0.7270    0.1658    0.0000 N   0  0  0  0  0  0  0  0  0
   -1.0452    0.9270    0.0000 C   0  0  0  0  0  0  0  0  0
   -1.8660    1.2493    0.0000 C   0  0  0  0  0  0  0  0  0
   -1.1403    1.2639    0.0000 C   0  0  0  0  0  0  0  0  0
   -0.7036   -0.6589    0.0000 C   0  0  0  0  0  0  0  0  0
    0.6881    2.8545    0.0000 C   0  0  0  0  0  0  0  0  0
    0.9989    3.6399    0.0000 C   0  0  0  0  0  0  0  0  0
    1.8048    3.8241    0.0000 C   0  0  0  0  0  0  0  0  0
    2.3705    3.1867    0.0000 C   0  0  0  0  0  0  0  0  0
    3.2068    2.9711    0.0000 N   0  0  0  0  0  0  0  0  0
    3.9649    2.6128    0.0000 C   0  0  0  0  0  0  0  0  0
    4.5248    1.9644    0.0000 C   0  0  0  0  0  0  0  0  0
    4.7717    1.1335    0.0000 C   0  0  0  0  0  0  0  0  0
    4.6771    0.2425    0.0000 C   0  0  0  0  0  0  0  0  0
    4.2829   -0.5246    0.0000 C   0  0  0  0  0  0  0  0  0
    3.6687   -1.0938    0.0000 C   0  0  0  0  0  0  0  0  0
    2.9060   -1.4292    0.0000 C   0  0  0  0  0  0  0  0  0
    2.0767   -1.4980    0.0000 C   0  0  0  0  0  0  0  0  0
    1.2705   -1.2941    0.0000 C   0  0  0  0  0  0  0  0  0
    0.5746   -0.8404    0.0000 C   0  0  0  0  0  0  0  0  0
    0.0168   -1.4482    0.0000 O   0  0  0  0  0  0  0  0  0
    3.4873    3.7470    0.0000 C   0  0  0  0  0  0  0  0  0
    2.0838    2.3965    0.0000 C   0  0  0  0  0  0  0  0  0
    1.2763    2.2590    0.0000 C   0  0  0  0  0  0  0  0  0
  1  2  1  0  0  0  0
  1 26  1  0  0  0  0
  2  3  1  0  0  0  0
  3  4  1  0  0  0  0
  3  8  1  0  0  0  0
  4  5  1  0  0  0  0
  4 12  1  0  0  0  0
  5  6  1  0  0  0  0
  6  7  1  0  0  0  0
  6 10  1  0  0  0  0
  7  8  1  0  0  0  0
  7 11  1  0  0  0  0
  8  9  1  0  0  0  0
  9 10  1  0  0  0  0
 12 13  4  0  0  0  0
 12 30  4  0  0  0  0
 13 14  4  0  0  0  0
 14 15  4  0  0  0  0
 15 16  1  0  0  0  0
 15 29  4  0  0  0  0
 16 17  1  0  0  0  0
 16 28  1  0  0  0  0
 17 18  1  0  0  0  0
 18 19  1  0  0  0  0
 19 20  1  0  0  0  0
 20 21  1  0  0  0  0
 21 22  1  0  0  0  0
 22 23  1  0  0  0  0
 23 24  1  0  0  0  0
 24 25  1  0  0  0  0
 25 26  1  0  0  0  0
 26 27  2  0  0  0  0
 29 30  4  0  0  0  0
M  END
>  <Name_Molregno>
353552

>  <Norepinephrine transporter>
5.97

>  <Serotonin transporter>
7.03

$$$$
353587
  Marvin  02231216192D 0   1.00000     0.00000     0

 32 35  0  0  1  0  0  0  0  0999 V2000
   -2.4261    0.1760    0.0000 O   0  0  0  0  0  0  0  0  0
   -2.6795    0.9727    0.0000 C   0  0  0  0  0  0  0  0  0
   -2.6846    1.8138    0.0000 C   0  0  0  0  0  0  0  0  0
   -2.4958    2.4577    0.0000 C   0  0  0  0  0  0  0  0  0
   -2.1540    1.7024    0.0000 C   0  0  0  0  0  0  0  0  0
   -2.9331    1.1966    0.0000 C   0  0  0  0  0  0  0  0  0
   -3.1525    0.5186    0.0000 N   0  0  0  0  0  0  0  0  0
   -3.4907    1.2711    0.0000 C   0  0  0  0  0  0  0  0  0
   -4.3198    1.5717    0.0000 C   0  0  0  0  0  0  0  0  0
   -3.5947    1.6054    0.0000 C   0  0  0  0  0  0  0  0  0
   -3.1074   -0.3051    0.0000 C   0  0  0  0  0  0  0  0  0
   -1.8449    3.2757    0.0000 C   0  0  0  0  0  0  0  0  0
   -1.6422    4.0962    0.0000 C   0  0  0  0  0  0  0  0  0
   -0.8532    4.3824    0.0000 C   0  0  0  0  0  0  0  0  0
   -0.1988    3.8266    0.0000 C   0  0  0  0  0  0  0  0  0
    0.6690    3.7567    0.0000 N   0  0  0  0  0  0  0  0  0
    1.5022    3.5468    0.0000 C   0  0  0  0  0  0  0  0  0
    2.2033    3.0478    0.0000 C   0  0  0  0  0  0  0  0  0
    2.6746    2.3064    0.0000 C   0  0  0  0  0  0  0  0  0
    2.8588    1.4408    0.0000 C   0  0  0  0  0  0  0  0  0
    2.7462    0.5730    0.0000 C   0  0  0  0  0  0  0  0  0
    2.3870   -0.1780    0.0000 C   0  0  0  0  0  0  0  0  0
    1.8213   -0.7890    0.0000 C   0  0  0  0  0  0  0  0  0
    1.1019   -1.2044    0.0000 C   0  0  0  0  0  0  0  0  0
    0.2921   -1.3892    0.0000 C   0  0  0  0  0  0  0  0  0
   -0.5361   -1.3272    0.0000 C   0  0  0  0  0  0  0  0  0
   -1.3090   -1.0241    0.0000 C   0  0  0  0  0  0  0  0  0
   -1.9578   -0.5077    0.0000 C   0  0  0  0  0  0  0  0  0
   -2.5617   -1.0698    0.0000 O   0  0  0  0  0  0  0  0  0
    0.8033    4.5706    0.0000 C   0  0  0  0  0  0  0  0  0
   -0.3964    3.0069    0.0000 C   0  0  0  0  0  0  0  0  0
   -1.1877    2.7618    0.0000 C   0  0  0  0  0  0  0  0  0
  1  2  1  0  0  0  0
  1 28  1  0  0  0  0
  2  3  1  0  0  0  0
  3  4  1  0  0  0  0
  3  8  1  0  0  0  0
  4  5  1  0  0  0  0
  4 12  1  0  0  0  0
  5  6  1  0  0  0  0
  6  7  1  0  0  0  0
  6 10  1  0  0  0  0
  7  8  1  0  0  0  0
  7 11  1  0  0  0  0
  8  9  1  0  0  0  0
  9 10  1  0  0  0  0
 12 13  4  0  0  0  0
 12 32  4  0  0  0  0
 13 14  4  0  0  0  0
 14 15  4  0  0  0  0
 15 16  1  0  0  0  0
 15 31  4  0  0  0  0
 16 17  1  0  0  0  0
 16 30  1  0  0  0  0
 17 18  1  0  0  0  0
 18 19  1  0  0  0  0
 19 20  1  0  0  0  0
 20 21  1  0  0  0  0
 21 22  1  0  0  0  0
 22 23  1  0  0  0  0
 23 24  1  0  0  0  0
 24 25  1  0  0  0  0
 25 26  1  0  0  0  0
 26 27  1  0  0  0  0
 27 28  1  0  0  0  0
 28 29  2  0  0  0  0
 31 32  4  0  0  0  0
M  END
>  <Name_Molregno>
353587

>  <Norepinephrine transporter>
5.7

>  <Serotonin transporter>
6.96

$$$$
353747
  Marvin  02231216192D 0   1.00000     0.00000     0

 26 29  0  0  1  0  0  0  0  0999 V2000
   -0.3766   -1.8594    0.0000 O   0  0  0  0  0  0  0  0  0
   -0.7223   -1.0939    0.0000 C   0  0  0  0  0  0  0  0  0
   -0.7358   -0.2425    0.0000 C   0  0  0  0  0  0  0  0  0
   -0.4834    0.3792    0.0000 C   0  0  0  0  0  0  0  0  0
   -0.2190   -0.4065    0.0000 C   0  0  0  0  0  0  0  0  0
   -1.0449   -0.8317    0.0000 C   0  0  0  0  0  0  0  0  0
   -1.3312   -1.4842    0.0000 N   0  0  0  0  0  0  0  0  0
   -1.5922   -0.7016    0.0000 C   0  0  0  0  0  0  0  0  0
   -2.3870   -0.3195    0.0000 C   0  0  0  0  0  0  0  0  0
   -1.6622   -0.3586    0.0000 C   0  0  0  0  0  0  0  0  0
   -1.3689   -2.3084    0.0000 C   0  0  0  0  0  0  0  0  0
    0.3217    0.9923    0.0000 C   0  0  0  0  0  0  0  0  0
    0.6649    0.2336    0.0000 C   0  0  0  0  0  0  0  0  0
    1.4792    0.1036    0.0000 C   0  0  0  0  0  0  0  0  0
    2.0130    0.7478    0.0000 C   0  0  0  0  0  0  0  0  0
    2.6764    0.2080    0.0000 N   0  0  0  0  0  0  0  0  0
    3.0938   -0.5309    0.0000 C   0  0  0  0  0  0  0  0  0
    3.8958   -0.3375    0.0000 O   0  0  0  0  0  0  0  0  0
    3.0592   -1.3793    0.0000 C   0  0  0  0  0  0  0  0  0
    2.6157   -2.1008    0.0000 C   0  0  0  0  0  0  0  0  0
    1.9032   -2.5583    0.0000 C   0  0  0  0  0  0  0  0  0
    1.0653   -2.6703    0.0000 C   0  0  0  0  0  0  0  0  0
    0.2522   -2.4160    0.0000 C   0  0  0  0  0  0  0  0  0
   -0.1533   -3.1345    0.0000 O   0  0  0  0  0  0  0  0  0
    1.6987    1.5289    0.0000 C   0  0  0  0  0  0  0  0  0
    0.8622    1.6475    0.0000 C   0  0  0  0  0  0  0  0  0
  1  2  1  0  0  0  0
  1 23  1  0  0  0  0
  2  3  1  0  0  0  0
  3  4  1  0  0  0  0
  3  8  1  0  0  0  0
  4  5  1  0  0  0  0
  4 12  1  0  0  0  0
  5  6  1  0  0  0  0
  6  7  1  0  0  0  0
  6 10  1  0  0  0  0
  7  8  1  0  0  0  0
  7 11  1  0  0  0  0
  8  9  1  0  0  0  0
  9 10  1  0  0  0  0
 12 13  4  0  0  0  0
 12 26  4  0  0  0  0
 13 14  4  0  0  0  0
 14 15  4  0  0  0  0
 15 16  1  0  0  0  0
 15 25  4  0  0  0  0
 16 17  1  0  0  0  0
 17 18  2  0  0  0  0
 17 19  1  0  0  0  0
 19 20  1  0  0  0  0
 20 21  1  0  0  0  0
 21 22  1  0  0  0  0
 22 23  1  0  0  0  0
 23 24  2  0  0  0  0
 25 26  4  0  0  0  0
M  END
>  <Name_Molregno>
353747

>  <Norepinephrine transporter>
5.7

$$$$
353774
  Marvin  02231216192D 0   1.00000     0.00000     0

 27 30  0  0  1  0  0  0  0  0999 V2000
   -2.0971    0.1524    0.0000 O   0  0  0  0  0  0  0  0  0
   -2.4191    0.9333    0.0000 C   0  0  0  0  0  0  0  0  0
   -2.4315    1.7784    0.0000 C   0  0  0  0  0  0  0  0  0
   -2.1882    2.4038    0.0000 C   0  0  0  0  0  0  0  0  0
   -1.9123    1.6220    0.0000 C   0  0  0  0  0  0  0  0  0
   -2.7319    1.1848    0.0000 C   0  0  0  0  0  0  0  0  0
   -3.0086    0.5281    0.0000 N   0  0  0  0  0  0  0  0  0
   -3.2811    1.3069    0.0000 C   0  0  0  0  0  0  0  0  0
   -4.0813    1.6773    0.0000 C   0  0  0  0  0  0  0  0  0
   -3.3561    1.6488    0.0000 C   0  0  0  0  0  0  0  0  0
   -3.0342   -0.2965    0.0000 C   0  0  0  0  0  0  0  0  0
   -1.4065    3.0481    0.0000 C   0  0  0  0  0  0  0  0  0
   -0.9397    3.7534    0.0000 C   0  0  0  0  0  0  0  0  0
   -0.1037    3.7147    0.0000 C   0  0  0  0  0  0  0  0  0
    0.3005    2.9762    0.0000 C   0  0  0  0  0  0  0  0  0
    1.0341    2.5420    0.0000 N   0  0  0  0  0  0  0  0  0
    1.5639    1.8785    0.0000 C   0  0  0  0  0  0  0  0  0
    2.3149    2.2200    0.0000 O   0  0  0  0  0  0  0  0  0
    1.7162    1.0404    0.0000 C   0  0  0  0  0  0  0  0  0
    1.4628    0.2364    0.0000 C   0  0  0  0  0  0  0  0  0
    0.8997   -0.3896    0.0000 C   0  0  0  0  0  0  0  0  0
    0.1334   -0.7390    0.0000 C   0  0  0  0  0  0  0  0  0
   -0.7102   -0.7568    0.0000 C   0  0  0  0  0  0  0  0  0
   -1.4970   -0.4389    0.0000 C   0  0  0  0  0  0  0  0  0
   -1.9498   -1.1286    0.0000 O   0  0  0  0  0  0  0  0  0
   -0.1684    2.2863    0.0000 C   0  0  0  0  0  0  0  0  0
   -0.9908    2.3214    0.0000 C   0  0  0  0  0  0  0  0  0
  1  2  1  0  0  0  0
  1 24  1  0  0  0  0
  2  3  1  0  0  0  0
  3  4  1  0  0  0  0
  3  8  1  0  0  0  0
  4  5  1  0  0  0  0
  4 12  1  0  0  0  0
  5  6  1  0  0  0  0
  6  7  1  0  0  0  0
  6 10  1  0  0  0  0
  7  8  1  0  0  0  0
  7 11  1  0  0  0  0
  8  9  1  0  0  0  0
  9 10  1  0  0  0  0
 12 13  4  0  0  0  0
 12 27  4  0  0  0  0
 13 14  4  0  0  0  0
 14 15  4  0  0  0  0
 15 16  1  0  0  0  0
 15 26  4  0  0  0  0
 16 17  1  0  0  0  0
 17 18  2  0  0  0  0
 17 19  1  0  0  0  0
 19 20  1  0  0  0  0
 20 21  1  0  0  0  0
 21 22  1  0  0  0  0
 22 23  1  0  0  0  0
 23 24  1  0  0  0  0
 24 25  2  0  0  0  0
 26 27  4  0  0  0  0
M  END
>  <Name_Molregno>
353774

>  <Norepinephrine transporter>
7.7

>  <Serotonin transporter>
7.3

$$$$
353775
  Marvin  02231216192D 0   1.00000     0.00000     0

 28 31  0  0  1  0  0  0  0  0999 V2000
   -1.8893   -2.6167    0.0000 O   0  0  0  0  0  0  0  0  0
   -2.1970   -1.8474    0.0000 C   0  0  0  0  0  0  0  0  0
   -2.2095   -1.0067    0.0000 C   0  0  0  0  0  0  0  0  0
   -1.9869   -0.3737    0.0000 C   0  0  0  0  0  0  0  0  0
   -1.6855   -1.1459    0.0000 C   0  0  0  0  0  0  0  0  0
   -2.4903   -1.6099    0.0000 C   0  0  0  0  0  0  0  0  0
   -2.7452   -2.2753    0.0000 N   0  0  0  0  0  0  0  0  0
   -3.0431   -1.5060    0.0000 C   0  0  0  0  0  0  0  0  0
   -3.8551   -1.1620    0.0000 C   0  0  0  0  0  0  0  0  0
   -3.1293   -1.1666    0.0000 C   0  0  0  0  0  0  0  0  0
   -2.7436   -3.1003    0.0000 C   0  0  0  0  0  0  0  0  0
   -1.2611    0.3581    0.0000 C   0  0  0  0  0  0  0  0  0
   -0.8408    1.0849    0.0000 C   0  0  0  0  0  0  0  0  0
   -0.0231    1.1026    0.0000 C   0  0  0  0  0  0  0  0  0
    0.4779    0.4293    0.0000 C   0  0  0  0  0  0  0  0  0
    1.2800    0.0618    0.0000 N   0  0  0  0  0  0  0  0  0
    1.9334   -0.4854    0.0000 C   0  0  0  0  0  0  0  0  0
    2.6076   -0.0098    0.0000 O   0  0  0  0  0  0  0  0  0
    2.2409   -1.3149    0.0000 C   0  0  0  0  0  0  0  0  0
    2.1500   -2.1823    0.0000 C   0  0  0  0  0  0  0  0  0
    1.7017   -2.9495    0.0000 C   0  0  0  0  0  0  0  0  0
    1.0401   -3.4478    0.0000 C   0  0  0  0  0  0  0  0  0
    0.2407   -3.6753    0.0000 C   0  0  0  0  0  0  0  0  0
   -0.5865   -3.5987    0.0000 C   0  0  0  0  0  0  0  0  0
   -1.3299   -3.2288    0.0000 C   0  0  0  0  0  0  0  0  0
   -1.8265   -3.8876    0.0000 O   0  0  0  0  0  0  0  0  0
    0.0528   -0.2779    0.0000 C   0  0  0  0  0  0  0  0  0
   -0.7645   -0.3201    0.0000 C   0  0  0  0  0  0  0  0  0
  1  2  1  0  0  0  0
  1 25  1  0  0  0  0
  2  3  1  0  0  0  0
  3  4  1  0  0  0  0
  3  8  1  0  0  0  0
  4  5  1  0  0  0  0
  4 12  1  0  0  0  0
  5  6  1  0  0  0  0
  6  7  1  0  0  0  0
  6 10  1  0  0  0  0
  7  8  1  0  0  0  0
  7 11  1  0  0  0  0
  8  9  1  0  0  0  0
  9 10  1  0  0  0  0
 12 13  4  0  0  0  0
 12 28  4  0  0  0  0
 13 14  4  0  0  0  0
 14 15  4  0  0  0  0
 15 16  1  0  0  0  0
 15 27  4  0  0  0  0
 16 17  1  0  0  0  0
 17 18  2  0  0  0  0
 17 19  1  0  0  0  0
 19 20  1  0  0  0  0
 20 21  1  0  0  0  0
 21 22  1  0  0  0  0
 22 23  1  0  0  0  0
 23 24  1  0  0  0  0
 24 25  1  0  0  0  0
 25 26  2  0  0  0  0
 27 28  4  0  0  0  0
M  END
>  <Name_Molregno>
353775

>  <Norepinephrine transporter>
5.82

>  <Serotonin transporter>
6.29

$$$$
355103
  Marvin  02231216192D 0   1.00000     0.00000     0

 25 27  0  0  1  0  0  0  0  0999 V2000
    6.1439    1.6822    0.0000 F   0  0  0  0  0  0  0  0  0
    5.4295    1.2697    0.0000 C   0  0  0  0  0  0  0  0  0
    5.0170    1.9842    0.0000 F   0  0  0  0  0  0  0  0  0
    5.8420    0.5552    0.0000 F   0  0  0  0  0  0  0  0  0
    4.7150    0.8572    0.0000 O   0  0  0  0  0  0  0  0  0
    4.7150    0.0322    0.0000 C   0  0  0  0  0  0  0  0  0
    5.4295   -0.3803    0.0000 C   0  0  0  0  0  0  0  0  0
    5.4295   -1.2053    0.0000 C   0  0  0  0  0  0  0  0  0
    4.7150   -1.6178    0.0000 C   0  0  0  0  0  0  0  0  0
    4.0005   -1.2053    0.0000 C   0  0  0  0  0  0  0  0  0
    4.0005   -0.3803    0.0000 C   0  0  0  0  0  0  0  0  0
    3.2860    0.0322    0.0000 C   0  0  0  0  0  0  0  0  0
    2.5716   -0.3803    0.0000 C   0  0  0  0  0  0  0  0  0
    1.8571    0.0322    0.0000 N   0  0  0  0  0  0  0  0  0
    1.1426   -0.3803    0.0000 C   0  0  0  0  0  0  0  0  0
    0.4282    0.0322    0.0000 C   0  0  0  0  0  0  0  0  0
    0.4282    0.8572    0.0000 N   0  0  0  0  0  0  0  0  0
    1.1426    1.2697    0.0000 C   0  0  0  0  0  0  0  0  0
    1.8571    0.8572    0.0000 C   0  0  0  0  0  0  0  0  0
    2.5716   -1.2053    0.0000 C   0  0  0  0  0  0  0  0  0
    3.2860   -1.6178    0.0000 C   0  0  0  0  0  0  0  0  0
    3.2860   -2.4428    0.0000 C   0  0  0  0  0  0  0  0  0
    2.5716   -2.8553    0.0000 C   0  0  0  0  0  0  0  0  0
    1.8571   -2.4428    0.0000 C   0  0  0  0  0  0  0  0  0
    1.8571   -1.6178    0.0000 C   0  0  0  0  0  0  0  0  0
  1  2  1  0  0  0  0
  2  3  1  0  0  0  0
  2  4  1  0  0  0  0
  2  5  1  0  0  0  0
  5  6  1  0  0  0  0
  6  7  4  0  0  0  0
  6 11  4  0  0  0  0
  7  8  4  0  0  0  0
  8  9  4  0  0  0  0
  9 10  4  0  0  0  0
 10 11  4  0  0  0  0
 11 12  1  0  0  0  0
 12 13  1  0  0  0  0
 13 14  1  0  0  0  0
 13 20  1  0  0  0  0
 14 15  1  0  0  0  0
 14 19  1  0  0  0  0
 15 16  1  0  0  0  0
 16 17  1  0  0  0  0
 17 18  1  0  0  0  0
 18 19  1  0  0  0  0
 20 21  4  0  0  0  0
 20 25  4  0  0  0  0
 21 22  4  0  0  0  0
 22 23  4  0  0  0  0
 23 24  4  0  0  0  0
 24 25  4  0  0  0  0
M  END
>  <Name_Molregno>
355103

>  <Dopamine transporter>
5

>  <Norepinephrine transporter>
7.11

>  <Serotonin transporter>
7.6

$$$$
355158
  Marvin  02231216192D 0   1.00000     0.00000     0

 22 24  0  0  1  0  0  0  0  0999 V2000
    0.0392    2.8075    0.0000 O   0  0  0  0  0  0  0  0  0
    0.7537    3.2200    0.0000 C   0  0  0  0  0  0  0  0  0
    0.0392    1.9825    0.0000 C   0  0  0  0  0  0  0  0  0
    0.7537    1.5700    0.0000 C   0  0  0  0  0  0  0  0  0
    0.7537    0.7450    0.0000 C   0  0  0  0  0  0  0  0  0
    0.0392    0.3325    0.0000 C   0  0  0  0  0  0  0  0  0
   -0.6753    0.7450    0.0000 C   0  0  0  0  0  0  0  0  0
   -0.6753    1.5700    0.0000 C   0  0  0  0  0  0  0  0  0
   -1.3898    1.9825    0.0000 C   0  0  0  0  0  0  0  0  0
   -2.1042    1.5700    0.0000 C   0  0  0  0  0  0  0  0  0
   -2.8187    1.9825    0.0000 N   0  0  0  0  0  0  0  0  0
   -3.5332    1.5700    0.0000 C   0  0  0  0  0  0  0  0  0
   -4.2476    1.9825    0.0000 C   0  0  0  0  0  0  0  0  0
   -4.2476    2.8075    0.0000 N   0  0  0  0  0  0  0  0  0
   -3.5332    3.2200    0.0000 C   0  0  0  0  0  0  0  0  0
   -2.8187    2.8075    0.0000 C   0  0  0  0  0  0  0  0  0
   -2.1042    0.7450    0.0000 C   0  0  0  0  0  0  0  0  0
   -1.3898    0.3325    0.0000 C   0  0  0  0  0  0  0  0  0
   -1.3898   -0.4925    0.0000 C   0  0  0  0  0  0  0  0  0
   -2.1042   -0.9050    0.0000 C   0  0  0  0  0  0  0  0  0
   -2.8187   -0.4925    0.0000 C   0  0  0  0  0  0  0  0  0
   -2.8187    0.3325    0.0000 C   0  0  0  0  0  0  0  0  0
  1  2  1  0  0  0  0
  1  3  1  0  0  0  0
  3  4  4  0  0  0  0
  3  8  4  0  0  0  0
  4  5  4  0  0  0  0
  5  6  4  0  0  0  0
  6  7  4  0  0  0  0
  7  8  4  0  0  0  0
  8  9  1  0  0  0  0
  9 10  1  0  0  0  0
 10 11  1  0  0  0  0
 10 17  1  0  0  0  0
 11 12  1  0  0  0  0
 11 16  1  0  0  0  0
 12 13  1  0  0  0  0
 13 14  1  0  0  0  0
 14 15  1  0  0  0  0
 15 16  1  0  0  0  0
 17 18  4  0  0  0  0
 17 22  4  0  0  0  0
 18 19  4  0  0  0  0
 19 20  4  0  0  0  0
 20 21  4  0  0  0  0
 21 22  4  0  0  0  0
M  END
>  <Name_Molregno>
355158

>  <Dopamine transporter>
5.28

>  <Norepinephrine transporter>
7.58

>  <Serotonin transporter>
8.3

$$$$
355160
  Marvin  02231216192D 0   1.00000     0.00000     0

 24 26  0  0  1  0  0  0  0  0999 V2000
    0.0336    2.3358    0.0000 O   0  0  0  0  0  0  0  0  0
    0.7481    2.7483    0.0000 C   0  0  0  0  0  0  0  0  0
    0.7481    3.5733    0.0000 C   0  0  0  0  0  0  0  0  0
    1.4626    3.9858    0.0000 C   0  0  0  0  0  0  0  0  0
    0.0336    1.5108    0.0000 C   0  0  0  0  0  0  0  0  0
    0.7481    1.0983    0.0000 C   0  0  0  0  0  0  0  0  0
    0.7481    0.2733    0.0000 C   0  0  0  0  0  0  0  0  0
    0.0336   -0.1392    0.0000 C   0  0  0  0  0  0  0  0  0
   -0.6808    0.2733    0.0000 C   0  0  0  0  0  0  0  0  0
   -0.6808    1.0983    0.0000 C   0  0  0  0  0  0  0  0  0
   -1.3953    1.5108    0.0000 C   0  0  0  0  0  0  0  0  0
   -2.1098    1.0983    0.0000 C   0  0  0  0  0  0  0  0  0
   -2.1098    0.2733    0.0000 N   0  0  0  0  0  0  0  0  0
   -1.3953   -0.1392    0.0000 C   0  0  0  0  0  0  0  0  0
   -1.3953   -0.9642    0.0000 C   0  0  0  0  0  0  0  0  0
   -2.1098   -1.3767    0.0000 N   0  0  0  0  0  0  0  0  0
   -2.8243   -0.9642    0.0000 C   0  0  0  0  0  0  0  0  0
   -2.8243   -0.1392    0.0000 C   0  0  0  0  0  0  0  0  0
   -2.8243    1.5108    0.0000 C   0  0  0  0  0  0  0  0  0
   -3.5387    1.0983    0.0000 C   0  0  0  0  0  0  0  0  0
   -4.2532    1.5108    0.0000 C   0  0  0  0  0  0  0  0  0
   -4.2532    2.3358    0.0000 C   0  0  0  0  0  0  0  0  0
   -3.5387    2.7483    0.0000 C   0  0  0  0  0  0  0  0  0
   -2.8243    2.3358    0.0000 C   0  0  0  0  0  0  0  0  0
  1  2  1  0  0  0  0
  1  5  1  0  0  0  0
  2  3  1  0  0  0  0
  3  4  1  0  0  0  0
  5  6  4  0  0  0  0
  5 10  4  0  0  0  0
  6  7  4  0  0  0  0
  7  8  4  0  0  0  0
  8  9  4  0  0  0  0
  9 10  4  0  0  0  0
 10 11  1  0  0  0  0
 11 12  1  0  0  0  0
 12 13  1  0  0  0  0
 12 19  1  0  0  0  0
 13 14  1  0  0  0  0
 13 18  1  0  0  0  0
 14 15  1  0  0  0  0
 15 16  1  0  0  0  0
 16 17  1  0  0  0  0
 17 18  1  0  0  0  0
 19 20  4  0  0  0  0
 19 24  4  0  0  0  0
 20 21  4  0  0  0  0
 21 22  4  0  0  0  0
 22 23  4  0  0  0  0
 23 24  4  0  0  0  0
M  END
>  <Name_Molregno>
355160

>  <Dopamine transporter>
5.71

>  <Norepinephrine transporter>
7.51

>  <Serotonin transporter>
7.74

$$$$
357974
  Marvin  02231216192D 0   1.00000     0.00000     0

 18 21  0  0  1  0  0  0  0  0999 V2000
    0.0131    0.2768    0.0000 N   0  0  0  0  0  0  0  0  0
    0.5678    0.8096    0.0000 C   0  0  0  0  0  0  0  0  0
    1.0930    0.2419    0.0000 C   0  0  0  0  0  0  0  0  0
    0.9639   -0.5467    0.0000 C   0  0  0  0  0  0  0  0  0
    0.0972   -0.4885    0.0000 C   0  0  0  0  0  0  0  0  0
   -0.7472   -0.3087    0.0000 C   0  0  0  0  0  0  0  0  0
   -0.7975    0.5762    0.0000 C   0  0  0  0  0  0  0  0  0
    0.0502    0.9422    0.0000 C   0  0  0  0  0  0  0  0  0
    1.0807    0.9087    0.0000 C   0  0  0  0  0  0  0  0  0
    1.5677    0.1052    0.0000 C   0  0  0  0  0  0  0  0  0
    2.3885    0.0219    0.0000 C   0  0  0  0  0  0  0  0  0
    2.8710    0.6911    0.0000 C   0  0  0  0  0  0  0  0  0
    3.6917    0.6078    0.0000 C   0  0  0  0  0  0  0  0  0
    4.0300   -0.1446    0.0000 C   0  0  0  0  0  0  0  0  0
    3.5475   -0.8138    0.0000 C   0  0  0  0  0  0  0  0  0
    2.7267   -0.7306    0.0000 C   0  0  0  0  0  0  0  0  0
    4.8508   -0.2279    0.0000 C   0  0  0  0  0  0  0  0  0
    1.8018    0.9038    0.0000 C   0  0  0  0  0  0  0  0  0
  1  2  1  0  0  0  0
  1  5  1  0  0  0  0
  1  8  1  0  0  0  0
  2  3  1  0  0  0  0
  3  4  1  0  0  0  0
  3 18  2  0  0  0  0
  4  5  1  0  0  0  0
  4 10  1  0  0  0  0
  5  6  1  0  0  0  0
  6  7  1  0  0  0  0
  7  8  1  0  0  0  0
  8  9  1  0  0  0  0
  9 10  1  0  0  0  0
 10 11  1  0  0  0  0
 11 12  4  0  0  0  0
 11 16  4  0  0  0  0
 12 13  4  0  0  0  0
 13 14  4  0  0  0  0
 14 15  4  0  0  0  0
 14 17  1  0  0  0  0
 15 16  4  0  0  0  0
M  END
>  <Name_Molregno>
357974

>  <Dopamine transporter>
7.39

>  <Norepinephrine transporter>
7.76

>  <Serotonin transporter>
8.11

$$$$
358003
  Marvin  02231216192D 0   1.00000     0.00000     0

 18 21  0  0  1  0  0  0  0  0999 V2000
    6.1766    0.5629    0.0000 Br  0  0  0  0  0  0  0  0  0
    5.3558    0.4796    0.0000 C   0  0  0  0  0  0  0  0  0
    5.0175   -0.2728    0.0000 C   0  0  0  0  0  0  0  0  0
    4.1967   -0.3561    0.0000 C   0  0  0  0  0  0  0  0  0
    3.7142    0.3131    0.0000 C   0  0  0  0  0  0  0  0  0
    4.0525    1.0655    0.0000 C   0  0  0  0  0  0  0  0  0
    4.8733    1.1488    0.0000 C   0  0  0  0  0  0  0  0  0
    2.8934    0.2298    0.0000 C   0  0  0  0  0  0  0  0  0
    2.2897    0.8817    0.0000 C   0  0  0  0  0  0  0  0  0
    1.4229    0.8235    0.0000 C   0  0  0  0  0  0  0  0  0
    1.3389    0.0582    0.0000 N   0  0  0  0  0  0  0  0  0
    1.8936   -0.4746    0.0000 C   0  0  0  0  0  0  0  0  0
    2.4188    0.0931    0.0000 C   0  0  0  0  0  0  0  0  0
    3.0905   -0.5680    0.0000 C   0  0  0  0  0  0  0  0  0
    1.3760   -0.6072    0.0000 C   0  0  0  0  0  0  0  0  0
    2.4065   -0.5737    0.0000 C   0  0  0  0  0  0  0  0  0
    0.5283   -0.2412    0.0000 C   0  0  0  0  0  0  0  0  0
    0.5785    0.6437    0.0000 C   0  0  0  0  0  0  0  0  0
  1  2  1  0  0  0  0
  2  3  4  0  0  0  0
  2  7  4  0  0  0  0
  3  4  4  0  0  0  0
  4  5  4  0  0  0  0
  5  6  4  0  0  0  0
  5  8  1  0  0  0  0
  6  7  4  0  0  0  0
  8  9  1  0  0  0  0
  8 16  1  0  0  0  0
  9 10  1  0  0  0  0
  9 13  1  0  0  0  0
 10 11  1  0  0  0  0
 10 18  1  0  0  0  0
 11 12  1  0  0  0  0
 11 15  1  0  0  0  0
 12 13  1  0  0  0  0
 13 14  2  0  0  0  0
 15 16  1  0  0  0  0
 15 17  1  0  0  0  0
 17 18  1  0  0  0  0
M  END
>  <Name_Molregno>
358003

>  <Dopamine transporter>
7.38

>  <Norepinephrine transporter>
8.53

>  <Serotonin transporter>
9.55

$$$$
358004
  Marvin  02231216192D 0   1.00000     0.00000     0

 18 21  0  0  1  0  0  0  0  0999 V2000
    6.1743    0.5514    0.0000 Cl  0  0  0  0  0  0  0  0  0
    5.3535    0.4681    0.0000 C   0  0  0  0  0  0  0  0  0
    5.0152   -0.2843    0.0000 C   0  0  0  0  0  0  0  0  0
    4.1944   -0.3676    0.0000 C   0  0  0  0  0  0  0  0  0
    3.7119    0.3016    0.0000 C   0  0  0  0  0  0  0  0  0
    4.0502    1.0540    0.0000 C   0  0  0  0  0  0  0  0  0
    4.8710    1.1373    0.0000 C   0  0  0  0  0  0  0  0  0
    2.8912    0.2183    0.0000 C   0  0  0  0  0  0  0  0  0
    2.2874    0.8702    0.0000 C   0  0  0  0  0  0  0  0  0
    1.4206    0.8120    0.0000 C   0  0  0  0  0  0  0  0  0
    1.3366    0.0467    0.0000 N   0  0  0  0  0  0  0  0  0
    1.8913   -0.4861    0.0000 C   0  0  0  0  0  0  0  0  0
    2.4165    0.0816    0.0000 C   0  0  0  0  0  0  0  0  0
    3.0883   -0.5795    0.0000 C   0  0  0  0  0  0  0  0  0
    1.3737   -0.6188    0.0000 C   0  0  0  0  0  0  0  0  0
    2.4042   -0.5852    0.0000 C   0  0  0  0  0  0  0  0  0
    0.5260   -0.2527    0.0000 C   0  0  0  0  0  0  0  0  0
    0.5763    0.6321    0.0000 C   0  0  0  0  0  0  0  0  0
  1  2  1  0  0  0  0
  2  3  4  0  0  0  0
  2  7  4  0  0  0  0
  3  4  4  0  0  0  0
  4  5  4  0  0  0  0
  5  6  4  0  0  0  0
  5  8  1  0  0  0  0
  6  7  4  0  0  0  0
  8  9  1  0  0  0  0
  8 16  1  0  0  0  0
  9 10  1  0  0  0  0
  9 13  1  0  0  0  0
 10 11  1  0  0  0  0
 10 18  1  0  0  0  0
 11 12  1  0  0  0  0
 11 15  1  0  0  0  0
 12 13  1  0  0  0  0
 13 14  2  0  0  0  0
 15 16  1  0  0  0  0
 15 17  1  0  0  0  0
 17 18  1  0  0  0  0
M  END
>  <Name_Molregno>
358004

>  <Dopamine transporter>
7.91

>  <Norepinephrine transporter>
8.32

>  <Serotonin transporter>
9.09

$$$$
358091
  Marvin  02231216192D 0   1.00000     0.00000     0

 18 21  0  0  1  0  0  0  0  0999 V2000
    6.1779    0.4866    0.0000 I   0  0  0  0  0  0  0  0  0
    5.3571    0.4033    0.0000 C   0  0  0  0  0  0  0  0  0
    5.0188   -0.3491    0.0000 C   0  0  0  0  0  0  0  0  0
    4.1980   -0.4324    0.0000 C   0  0  0  0  0  0  0  0  0
    3.7155    0.2368    0.0000 C   0  0  0  0  0  0  0  0  0
    4.0538    0.9893    0.0000 C   0  0  0  0  0  0  0  0  0
    4.8746    1.0725    0.0000 C   0  0  0  0  0  0  0  0  0
    2.8947    0.1535    0.0000 C   0  0  0  0  0  0  0  0  0
    2.2910    0.8054    0.0000 C   0  0  0  0  0  0  0  0  0
    1.4242    0.7472    0.0000 C   0  0  0  0  0  0  0  0  0
    1.3402   -0.0181    0.0000 N   0  0  0  0  0  0  0  0  0
    1.8949   -0.5509    0.0000 C   0  0  0  0  0  0  0  0  0
    2.4200    0.0168    0.0000 C   0  0  0  0  0  0  0  0  0
    3.0918   -0.6443    0.0000 C   0  0  0  0  0  0  0  0  0
    1.3773   -0.6835    0.0000 C   0  0  0  0  0  0  0  0  0
    2.4077   -0.6500    0.0000 C   0  0  0  0  0  0  0  0  0
    0.5296   -0.3175    0.0000 C   0  0  0  0  0  0  0  0  0
    0.5798    0.5674    0.0000 C   0  0  0  0  0  0  0  0  0
  1  2  1  0  0  0  0
  2  3  4  0  0  0  0
  2  7  4  0  0  0  0
  3  4  4  0  0  0  0
  4  5  4  0  0  0  0
  5  6  4  0  0  0  0
  5  8  1  0  0  0  0
  6  7  4  0  0  0  0
  8  9  1  0  0  0  0
  8 16  1  0  0  0  0
  9 10  1  0  0  0  0
  9 13  1  0  0  0  0
 10 11  1  0  0  0  0
 10 18  1  0  0  0  0
 11 12  1  0  0  0  0
 11 15  1  0  0  0  0
 12 13  1  0  0  0  0
 13 14  2  0  0  0  0
 15 16  1  0  0  0  0
 15 17  1  0  0  0  0
 17 18  1  0  0  0  0
M  END
>  <Name_Molregno>
358091

>  <Dopamine transporter>
8.07

>  <Norepinephrine transporter>
8.23

>  <Serotonin transporter>
10.05

$$$$
358120
  Marvin  02231216192D 0   1.00000     0.00000     0

 22 25  0  0  1  0  0  0  0  0999 V2000
   -1.6030   -4.2468    0.0000 O   0  0  0  0  0  0  0  0  0
   -1.1269   -3.5730    0.0000 C   0  0  0  0  0  0  0  0  0
   -0.3054   -3.6485    0.0000 O   0  0  0  0  0  0  0  0  0
   -1.4909   -2.7835    0.0000 C   0  0  0  0  0  0  0  0  0
   -2.1889   -2.0748    0.0000 C   0  0  0  0  0  0  0  0  0
   -2.3179   -1.2862    0.0000 C   0  0  0  0  0  0  0  0  0
   -3.1847   -1.3444    0.0000 C   0  0  0  0  0  0  0  0  0
   -3.2687   -2.1097    0.0000 N   0  0  0  0  0  0  0  0  0
   -2.7140   -2.6425    0.0000 C   0  0  0  0  0  0  0  0  0
   -3.2316   -2.7751    0.0000 C   0  0  0  0  0  0  0  0  0
   -2.2012   -2.7416    0.0000 C   0  0  0  0  0  0  0  0  0
   -1.7142   -1.9381    0.0000 C   0  0  0  0  0  0  0  0  0
   -0.8934   -1.8548    0.0000 C   0  0  0  0  0  0  0  0  0
   -0.5551   -1.1023    0.0000 C   0  0  0  0  0  0  0  0  0
    0.2657   -1.0191    0.0000 C   0  0  0  0  0  0  0  0  0
    0.7482   -1.6883    0.0000 C   0  0  0  0  0  0  0  0  0
    0.4099   -2.4407    0.0000 C   0  0  0  0  0  0  0  0  0
   -0.4109   -2.5240    0.0000 C   0  0  0  0  0  0  0  0  0
    1.5690   -1.6050    0.0000 C   0  0  0  0  0  0  0  0  0
   -4.0793   -2.4091    0.0000 C   0  0  0  0  0  0  0  0  0
   -4.0291   -1.5242    0.0000 C   0  0  0  0  0  0  0  0  0
   -1.2576   -4.9960    0.0000 C   0  0  0  0  0  0  0  0  0
  1  2  1  0  0  0  0
  1 22  1  0  0  0  0
  2  3  2  0  0  0  0
  2  4  1  0  0  0  0
  4  5  2  0  0  0  0
  5  6  1  0  0  0  0
  5  9  1  0  0  0  0
  6  7  1  0  0  0  0
  6 12  1  0  0  0  0
  7  8  1  0  0  0  0
  7 21  1  0  0  0  0
  8  9  1  0  0  0  0
  8 10  1  0  0  0  0
 10 11  1  0  0  0  0
 10 20  1  0  0  0  0
 11 12  1  0  0  0  0
 12 13  1  0  0  0  0
 13 14  4  0  0  0  0
 13 18  4  0  0  0  0
 14 15  4  0  0  0  0
 15 16  4  0  0  0  0
 16 17  4  0  0  0  0
 16 19  1  0  0  0  0
 17 18  4  0  0  0  0
 20 21  1  0  0  0  0
M  END
>  <Name_Molregno>
358120

>  <Dopamine transporter>
7.88

>  <Norepinephrine transporter>
7.59

>  <Serotonin transporter>
7.01

$$$$
358121
  Marvin  02231216192D 0   1.00000     0.00000     0

 22 25  0  0  1  0  0  0  0  0999 V2000
    6.4237   -0.0324    0.0000 Br  0  0  0  0  0  0  0  0  0
    5.6030   -0.1157    0.0000 C   0  0  0  0  0  0  0  0  0
    5.2647   -0.8682    0.0000 C   0  0  0  0  0  0  0  0  0
    4.4439   -0.9514    0.0000 C   0  0  0  0  0  0  0  0  0
    3.9614   -0.2822    0.0000 C   0  0  0  0  0  0  0  0  0
    4.2997    0.4702    0.0000 C   0  0  0  0  0  0  0  0  0
    5.1205    0.5535    0.0000 C   0  0  0  0  0  0  0  0  0
    3.1406   -0.3655    0.0000 C   0  0  0  0  0  0  0  0  0
    2.5368    0.2864    0.0000 C   0  0  0  0  0  0  0  0  0
    1.6701    0.2282    0.0000 C   0  0  0  0  0  0  0  0  0
    1.5861   -0.5371    0.0000 N   0  0  0  0  0  0  0  0  0
    2.1408   -1.0699    0.0000 C   0  0  0  0  0  0  0  0  0
    2.6659   -0.5022    0.0000 C   0  0  0  0  0  0  0  0  0
    3.3271   -1.1987    0.0000 C   0  0  0  0  0  0  0  0  0
    3.7067   -1.9961    0.0000 C   0  0  0  0  0  0  0  0  0
    3.2389   -2.6757    0.0000 O   0  0  0  0  0  0  0  0  0
    3.5935   -3.4206    0.0000 C   0  0  0  0  0  0  0  0  0
    4.5291   -2.0615    0.0000 O   0  0  0  0  0  0  0  0  0
    1.6231   -1.2026    0.0000 C   0  0  0  0  0  0  0  0  0
    2.6536   -1.1690    0.0000 C   0  0  0  0  0  0  0  0  0
    0.7755   -0.8365    0.0000 C   0  0  0  0  0  0  0  0  0
    0.8257    0.0483    0.0000 C   0  0  0  0  0  0  0  0  0
  1  2  1  0  0  0  0
  2  3  4  0  0  0  0
  2  7  4  0  0  0  0
  3  4  4  0  0  0  0
  4  5  4  0  0  0  0
  5  6  4  0  0  0  0
  5  8  1  0  0  0  0
  6  7  4  0  0  0  0
  8  9  1  0  0  0  0
  8 20  1  0  0  0  0
  9 10  1  0  0  0  0
  9 13  1  0  0  0  0
 10 11  1  0  0  0  0
 10 22  1  0  0  0  0
 11 12  1  0  0  0  0
 11 19  1  0  0  0  0
 12 13  1  0  0  0  0
 13 14  2  0  0  0  0
 14 15  1  0  0  0  0
 15 16  1  0  0  0  0
 15 18  2  0  0  0  0
 16 17  1  0  0  0  0
 19 20  1  0  0  0  0
 19 21  1  0  0  0  0
 21 22  1  0  0  0  0
M  END
>  <Name_Molregno>
358121

>  <Dopamine transporter>
8.53

>  <Norepinephrine transporter>
7.9

>  <Serotonin transporter>
8.25

$$$$
358122
  Marvin  02231216192D 0   1.00000     0.00000     0

 22 25  0  0  1  0  0  0  0  0999 V2000
    6.4237   -0.0324    0.0000 Cl  0  0  0  0  0  0  0  0  0
    5.6030   -0.1157    0.0000 C   0  0  0  0  0  0  0  0  0
    5.2647   -0.8682    0.0000 C   0  0  0  0  0  0  0  0  0
    4.4439   -0.9514    0.0000 C   0  0  0  0  0  0  0  0  0
    3.9614   -0.2822    0.0000 C   0  0  0  0  0  0  0  0  0
    4.2997    0.4702    0.0000 C   0  0  0  0  0  0  0  0  0
    5.1205    0.5535    0.0000 C   0  0  0  0  0  0  0  0  0
    3.1406   -0.3655    0.0000 C   0  0  0  0  0  0  0  0  0
    2.5368    0.2864    0.0000 C   0  0  0  0  0  0  0  0  0
    1.6701    0.2282    0.0000 C   0  0  0  0  0  0  0  0  0
    1.5861   -0.5371    0.0000 N   0  0  0  0  0  0  0  0  0
    2.1408   -1.0699    0.0000 C   0  0  0  0  0  0  0  0  0
    2.6659   -0.5022    0.0000 C   0  0  0  0  0  0  0  0  0
    3.3271   -1.1987    0.0000 C   0  0  0  0  0  0  0  0  0
    3.7067   -1.9961    0.0000 C   0  0  0  0  0  0  0  0  0
    3.2389   -2.6757    0.0000 O   0  0  0  0  0  0  0  0  0
    3.5935   -3.4206    0.0000 C   0  0  0  0  0  0  0  0  0
    4.5291   -2.0615    0.0000 O   0  0  0  0  0  0  0  0  0
    1.6231   -1.2026    0.0000 C   0  0  0  0  0  0  0  0  0
    2.6536   -1.1690    0.0000 C   0  0  0  0  0  0  0  0  0
    0.7755   -0.8365    0.0000 C   0  0  0  0  0  0  0  0  0
    0.8257    0.0483    0.0000 C   0  0  0  0  0  0  0  0  0
  1  2  1  0  0  0  0
  2  3  4  0  0  0  0
  2  7  4  0  0  0  0
  3  4  4  0  0  0  0
  4  5  4  0  0  0  0
  5  6  4  0  0  0  0
  5  8  1  0  0  0  0
  6  7  4  0  0  0  0
  8  9  1  0  0  0  0
  8 20  1  0  0  0  0
  9 10  1  0  0  0  0
  9 13  1  0  0  0  0
 10 11  1  0  0  0  0
 10 22  1  0  0  0  0
 11 12  1  0  0  0  0
 11 19  1  0  0  0  0
 12 13  1  0  0  0  0
 13 14  2  0  0  0  0
 14 15  1  0  0  0  0
 15 16  1  0  0  0  0
 15 18  2  0  0  0  0
 16 17  1  0  0  0  0
 19 20  1  0  0  0  0
 19 21  1  0  0  0  0
 21 22  1  0  0  0  0
M  END
>  <Name_Molregno>
358122

>  <Dopamine transporter>
8.34

>  <Norepinephrine transporter>
7.89

>  <Serotonin transporter>
7.73

$$$$
359546
  Marvin  02231216192D 0   1.00000     0.00000     0

 18 19  0  0  1  0  0  0  0  0999 V2000
    3.2762    3.3141    0.0000 I   0  0  0  0  0  0  0  0  0
    3.2762    2.4891    0.0000 C   0  0  0  0  0  0  0  0  0
    3.9907    2.0766    0.0000 C   0  0  0  0  0  0  0  0  0
    3.9907    1.2516    0.0000 C   0  0  0  0  0  0  0  0  0
    3.2762    0.8391    0.0000 C   0  0  0  0  0  0  0  0  0
    2.5617    1.2516    0.0000 C   0  0  0  0  0  0  0  0  0
    2.5617    2.0766    0.0000 C   0  0  0  0  0  0  0  0  0
    3.2762    0.0141    0.0000 C   0  0  0  0  0  0  0  0  0
    3.9907   -0.3984    0.0000 C   0  0  0  0  0  0  0  0  0
    3.9907   -1.2234    0.0000 C   0  0  0  0  0  0  0  0  0
    3.2762   -1.6359    0.0000 N   0  0  0  0  0  0  0  0  0
    2.5617   -1.2234    0.0000 C   0  0  0  0  0  0  0  0  0
    2.5617   -0.3984    0.0000 C   0  0  0  0  0  0  0  0  0
    1.8473    0.0141    0.0000 C   0  0  0  0  0  0  0  0  0
    1.8473    0.8391    0.0000 O   0  0  0  0  0  0  0  0  0
    1.1328    1.2516    0.0000 C   0  0  0  0  0  0  0  0  0
    1.1328   -0.3984    0.0000 O   0  0  0  0  0  0  0  0  0
    3.2762   -2.4609    0.0000 C   0  0  0  0  0  0  0  0  0
  1  2  1  0  0  0  0
  2  3  4  0  0  0  0
  2  7  4  0  0  0  0
  3  4  4  0  0  0  0
  4  5  4  0  0  0  0
  5  6  4  0  0  0  0
  5  8  1  0  0  0  0
  6  7  4  0  0  0  0
  8  9  1  0  0  0  0
  8 13  1  0  0  0  0
  9 10  1  0  0  0  0
 10 11  1  0  0  0  0
 11 12  1  0  0  0  0
 11 18  1  0  0  0  0
 12 13  1  0  0  0  0
 13 14  1  0  0  0  0
 14 15  1  0  0  0  0
 14 17  2  0  0  0  0
 15 16  1  0  0  0  0
M  END
>  <Name_Molregno>
359546

>  <Dopamine transporter>
6.19

>  <Norepinephrine transporter>
5.86

>  <Serotonin transporter>
6.05

$$$$
360905
  Marvin  02231216192D 0   1.00000     0.00000     0

 20 22  0  0  1  0  0  0  0  0999 V2000
    5.3954   -2.4329    0.0000 Br  0  0  0  0  0  0  0  0  0
    4.9836   -1.7180    0.0000 C   0  0  0  0  0  0  0  0  0
    4.1586   -1.7172    0.0000 C   0  0  0  0  0  0  0  0  0
    3.7468   -1.0023    0.0000 C   0  0  0  0  0  0  0  0  0
    4.1600   -0.2882    0.0000 C   0  0  0  0  0  0  0  0  0
    4.9850   -0.2890    0.0000 C   0  0  0  0  0  0  0  0  0
    5.3968   -1.0039    0.0000 C   0  0  0  0  0  0  0  0  0
    3.7482    0.4267    0.0000 C   0  0  0  0  0  0  0  0  0
    3.6100    1.2441    0.0000 C   0  0  0  0  0  0  0  0  0
    2.6812    1.2286    0.0000 C   0  0  0  0  0  0  0  0  0
    2.1206    1.6685    0.0000 N   0  0  0  0  0  0  0  0  0
    2.2603    0.8554    0.0000 C   0  0  0  0  0  0  0  0  0
    1.7404    0.1431    0.0000 C   0  0  0  0  0  0  0  0  0
    2.3607    0.5200    0.0000 C   0  0  0  0  0  0  0  0  0
    3.2320    0.8554    0.0000 C   0  0  0  0  0  0  0  0  0
    2.9518    0.0794    0.0000 C   0  0  0  0  0  0  0  0  0
    2.1397   -0.0659    0.0000 O   0  0  0  0  0  0  0  0  0
    1.8595   -0.8419    0.0000 C   0  0  0  0  0  0  0  0  0
    3.4837   -0.5512    0.0000 O   0  0  0  0  0  0  0  0  0
    1.6980    2.3770    0.0000 C   0  0  0  0  0  0  0  0  0
  1  2  1  0  0  0  0
  2  3  4  0  0  0  0
  2  7  4  0  0  0  0
  3  4  4  0  0  0  0
  4  5  4  0  0  0  0
  5  6  4  0  0  0  0
  5  8  1  0  0  0  0
  6  7  4  0  0  0  0
  8  9  1  0  0  0  0
  8 15  1  0  0  0  0
  9 10  1  0  0  0  0
 10 11  1  0  0  0  0
 10 14  1  0  0  0  0
 11 12  1  0  0  0  0
 11 20  1  0  0  0  0
 12 13  1  0  0  0  0
 12 15  1  0  0  0  0
 13 14  1  0  0  0  0
 15 16  1  0  0  0  0
 16 17  1  0  0  0  0
 16 19  2  0  0  0  0
 17 18  1  0  0  0  0
M  END
>  <Name_Molregno>
360905

>  <Norepinephrine transporter>
7.43

>  <Serotonin transporter>
7.85

$$$$
361476
  Marvin  02231216192D 0   1.00000     0.00000     0

 21 23  0  0  1  0  0  0  0  0999 V2000
    4.1395   -3.3073    0.0000 I   0  0  0  0  0  0  0  0  0
    4.5527   -2.5933    0.0000 C   0  0  0  0  0  0  0  0  0
    4.1409   -1.8784    0.0000 C   0  0  0  0  0  0  0  0  0
    4.5541   -1.1643    0.0000 C   0  0  0  0  0  0  0  0  0
    4.1423   -0.4494    0.0000 C   0  0  0  0  0  0  0  0  0
    4.5555    0.2646    0.0000 C   0  0  0  0  0  0  0  0  0
    5.3805    0.2638    0.0000 C   0  0  0  0  0  0  0  0  0
    5.7923   -0.4511    0.0000 C   0  0  0  0  0  0  0  0  0
    5.3791   -1.1651    0.0000 C   0  0  0  0  0  0  0  0  0
    4.1437    0.9795    0.0000 C   0  0  0  0  0  0  0  0  0
    4.0055    1.7969    0.0000 C   0  0  0  0  0  0  0  0  0
    3.0767    1.7814    0.0000 C   0  0  0  0  0  0  0  0  0
    2.5161    2.2213    0.0000 N   0  0  0  0  0  0  0  0  0
    2.6558    1.4082    0.0000 C   0  0  0  0  0  0  0  0  0
    2.1359    0.6959    0.0000 C   0  0  0  0  0  0  0  0  0
    2.7562    1.0728    0.0000 C   0  0  0  0  0  0  0  0  0
    3.6275    1.4082    0.0000 C   0  0  0  0  0  0  0  0  0
    3.3473    0.6322    0.0000 C   0  0  0  0  0  0  0  0  0
    2.5352    0.4869    0.0000 O   0  0  0  0  0  0  0  0  0
    2.2550   -0.2890    0.0000 C   0  0  0  0  0  0  0  0  0
    3.8792    0.0016    0.0000 O   0  0  0  0  0  0  0  0  0
  1  2  1  0  0  0  0
  2  3  2  0  0  0  0
  3  4  1  0  0  0  0
  4  5  4  0  0  0  0
  4  9  4  0  0  0  0
  5  6  4  0  0  0  0
  6  7  4  0  0  0  0
  6 10  1  0  0  0  0
  7  8  4  0  0  0  0
  8  9  4  0  0  0  0
 10 11  1  0  0  0  0
 10 17  1  0  0  0  0
 11 12  1  0  0  0  0
 12 13  1  0  0  0  0
 12 16  1  0  0  0  0
 13 14  1  0  0  0  0
 14 15  1  0  0  0  0
 14 17  1  0  0  0  0
 15 16  1  0  0  0  0
 17 18  1  0  0  0  0
 18 19  1  0  0  0  0
 18 21  2  0  0  0  0
 19 20  1  0  0  0  0
M  END
>  <Name_Molregno>
361476

>  <Dopamine transporter>
7.52

>  <Norepinephrine transporter>
6.99

>  <Serotonin transporter>
9.7

$$$$
361477
  Marvin  02231216192D 0   1.00000     0.00000     0

 21 23  0  0  1  0  0  0  0  0999 V2000
    4.1395   -3.3073    0.0000 Br  0  0  0  0  0  0  0  0  0
    4.5527   -2.5933    0.0000 C   0  0  0  0  0  0  0  0  0
    4.1409   -1.8784    0.0000 C   0  0  0  0  0  0  0  0  0
    4.5541   -1.1643    0.0000 C   0  0  0  0  0  0  0  0  0
    4.1423   -0.4494    0.0000 C   0  0  0  0  0  0  0  0  0
    4.5555    0.2646    0.0000 C   0  0  0  0  0  0  0  0  0
    5.3805    0.2638    0.0000 C   0  0  0  0  0  0  0  0  0
    5.7923   -0.4511    0.0000 C   0  0  0  0  0  0  0  0  0
    5.3791   -1.1651    0.0000 C   0  0  0  0  0  0  0  0  0
    4.1437    0.9795    0.0000 C   0  0  0  0  0  0  0  0  0
    4.0055    1.7969    0.0000 C   0  0  0  0  0  0  0  0  0
    3.0767    1.7814    0.0000 C   0  0  0  0  0  0  0  0  0
    2.5161    2.2213    0.0000 N   0  0  0  0  0  0  0  0  0
    2.6558    1.4082    0.0000 C   0  0  0  0  0  0  0  0  0
    2.1359    0.6959    0.0000 C   0  0  0  0  0  0  0  0  0
    2.7562    1.0728    0.0000 C   0  0  0  0  0  0  0  0  0
    3.6275    1.4082    0.0000 C   0  0  0  0  0  0  0  0  0
    3.3473    0.6322    0.0000 C   0  0  0  0  0  0  0  0  0
    2.5352    0.4869    0.0000 O   0  0  0  0  0  0  0  0  0
    2.2550   -0.2890    0.0000 C   0  0  0  0  0  0  0  0  0
    3.8792    0.0016    0.0000 O   0  0  0  0  0  0  0  0  0
  1  2  1  0  0  0  0
  2  3  2  0  0  0  0
  3  4  1  0  0  0  0
  4  5  4  0  0  0  0
  4  9  4  0  0  0  0
  5  6  4  0  0  0  0
  6  7  4  0  0  0  0
  6 10  1  0  0  0  0
  7  8  4  0  0  0  0
  8  9  4  0  0  0  0
 10 11  1  0  0  0  0
 10 17  1  0  0  0  0
 11 12  1  0  0  0  0
 12 13  1  0  0  0  0
 12 16  1  0  0  0  0
 13 14  1  0  0  0  0
 14 15  1  0  0  0  0
 14 17  1  0  0  0  0
 15 16  1  0  0  0  0
 17 18  1  0  0  0  0
 18 19  1  0  0  0  0
 18 21  2  0  0  0  0
 19 20  1  0  0  0  0
M  END
>  <Name_Molregno>
361477

>  <Dopamine transporter>
7.49

>  <Norepinephrine transporter>
7.5

>  <Serotonin transporter>
9.7

$$$$
367469
  Marvin  02231216192D 0   1.00000     0.00000     0

 36 38  0  0  1  0  0  0  0  0999 V2000
   -0.4444   -0.5418    0.0000 F   0  0  0  0  0  0  0  0  0
    0.2700   -0.1293    0.0000 C   0  0  0  0  0  0  0  0  0
    0.2700    0.6957    0.0000 C   0  0  0  0  0  0  0  0  0
    0.9845    1.1082    0.0000 C   0  0  0  0  0  0  0  0  0
    1.6990    0.6957    0.0000 C   0  0  0  0  0  0  0  0  0
    1.6990   -0.1293    0.0000 C   0  0  0  0  0  0  0  0  0
    0.9845   -0.5418    0.0000 C   0  0  0  0  0  0  0  0  0
    2.4135    1.1082    0.0000 C   0  0  0  0  0  0  0  0  0
    3.1279    0.6957    0.0000 C   0  0  0  0  0  0  0  0  0
    3.8424    1.1082    0.0000 C   0  0  0  0  0  0  0  0  0
    4.5569    0.6957    0.0000 C   0  0  0  0  0  0  0  0  0
    4.5569   -0.1293    0.0000 N   0  0  0  0  0  0  0  0  0
    3.8424   -0.5418    0.0000 C   0  0  0  0  0  0  0  0  0
    3.1279   -0.1293    0.0000 C   0  0  0  0  0  0  0  0  0
    5.2713   -0.5418    0.0000 C   0  0  0  0  0  0  0  0  0
    5.9858   -0.1293    0.0000 C   0  0  0  0  0  0  0  0  0
    6.7003   -0.5418    0.0000 O   0  0  0  0  0  0  0  0  0
    5.2713    1.1082    0.0000 C   0  0  0  0  0  0  0  0  0
    5.9858    0.6957    0.0000 C   0  0  0  0  0  0  0  0  0
    6.7003    1.1082    0.0000 C   0  0  0  0  0  0  0  0  0
    7.4148    0.6957    0.0000 N   0  0  0  0  0  0  0  0  0
    8.1292    1.1082    0.0000 C   0  0  0  0  0  0  0  0  0
    8.1292    1.9332    0.0000 O   0  0  0  0  0  0  0  0  0
    8.8437    0.6957    0.0000 N   0  0  0  0  0  0  0  0  0
    9.5582    1.1082    0.0000 C   0  0  0  0  0  0  0  0  0
    9.5582    1.9332    0.0000 C   0  0  0  0  0  0  0  0  0
   10.2726    2.3457    0.0000 C   0  0  0  0  0  0  0  0  0
   10.9871    1.9332    0.0000 C   0  0  0  0  0  0  0  0  0
   10.9871    1.1082    0.0000 C   0  0  0  0  0  0  0  0  0
   10.2726    0.6957    0.0000 C   0  0  0  0  0  0  0  0  0
   11.7016    0.6957    0.0000 C   0  0  0  0  0  0  0  0  0
   12.4160    1.1082    0.0000 O   0  0  0  0  0  0  0  0  0
   11.7016   -0.1293    0.0000 C   0  0  0  0  0  0  0  0  0
   10.2726    3.1707    0.0000 C   0  0  0  0  0  0  0  0  0
   10.9871    3.5832    0.0000 O   0  0  0  0  0  0  0  0  0
    9.5582    3.5832    0.0000 C   0  0  0  0  0  0  0  0  0
  1  2  1  0  0  0  0
  2  3  4  0  0  0  0
  2  7  4  0  0  0  0
  3  4  4  0  0  0  0
  4  5  4  0  0  0  0
  5  6  4  0  0  0  0
  5  8  1  0  0  0  0
  6  7  4  0  0  0  0
  8  9  1  0  0  0  0
  9 10  1  0  0  0  0
  9 14  1  0  0  0  0
 10 11  1  0  0  0  0
 11 12  1  0  0  0  0
 11 18  1  0  0  0  0
 12 13  1  0  0  0  0
 12 15  1  0  0  0  0
 13 14  1  0  0  0  0
 15 16  1  0  0  0  0
 16 17  1  0  0  0  0
 18 19  1  0  0  0  0
 19 20  1  0  0  0  0
 20 21  1  0  0  0  0
 21 22  1  0  0  0  0
 22 23  2  0  0  0  0
 22 24  1  0  0  0  0
 24 25  1  0  0  0  0
 25 26  4  0  0  0  0
 25 30  4  0  0  0  0
 26 27  4  0  0  0  0
 27 28  4  0  0  0  0
 27 34  1  0  0  0  0
 28 29  4  0  0  0  0
 29 30  4  0  0  0  0
 29 31  1  0  0  0  0
 31 32  2  0  0  0  0
 31 33  1  0  0  0  0
 34 35  2  0  0  0  0
 34 36  1  0  0  0  0
M  END
>  <Name_Molregno>
367469

>  <Dopamine transporter>
6.35

>  <Norepinephrine transporter>
5.86

>  <Serotonin transporter>
7.4

$$$$
367470
  Marvin  02231216192D 0   1.00000     0.00000     0

 37 39  0  0  1  0  0  0  0  0999 V2000
   -0.4426   -1.7276    0.0000 F   0  0  0  0  0  0  0  0  0
    0.2719   -1.3151    0.0000 C   0  0  0  0  0  0  0  0  0
    0.2719   -0.4901    0.0000 C   0  0  0  0  0  0  0  0  0
    0.9864   -0.0776    0.0000 C   0  0  0  0  0  0  0  0  0
    1.7008   -0.4901    0.0000 C   0  0  0  0  0  0  0  0  0
    1.7008   -1.3151    0.0000 C   0  0  0  0  0  0  0  0  0
    0.9864   -1.7276    0.0000 C   0  0  0  0  0  0  0  0  0
    2.4153   -0.0776    0.0000 C   0  0  0  0  0  0  0  0  0
    3.1298   -0.4901    0.0000 C   0  0  0  0  0  0  0  0  0
    3.8442   -0.0776    0.0000 C   0  0  0  0  0  0  0  0  0
    4.5587   -0.4901    0.0000 C   0  0  0  0  0  0  0  0  0
    4.5587   -1.3151    0.0000 N   0  0  0  0  0  0  0  0  0
    3.8442   -1.7276    0.0000 C   0  0  0  0  0  0  0  0  0
    3.1298   -1.3151    0.0000 C   0  0  0  0  0  0  0  0  0
    5.2732   -1.7276    0.0000 C   0  0  0  0  0  0  0  0  0
    5.2732   -2.5526    0.0000 C   0  0  0  0  0  0  0  0  0
    5.9877   -2.9651    0.0000 C   0  0  0  0  0  0  0  0  0
    5.9877   -3.7901    0.0000 O   0  0  0  0  0  0  0  0  0
    5.2732   -0.0776    0.0000 C   0  0  0  0  0  0  0  0  0
    5.9877   -0.4901    0.0000 C   0  0  0  0  0  0  0  0  0
    6.7021   -0.0776    0.0000 C   0  0  0  0  0  0  0  0  0
    7.4166   -0.4901    0.0000 N   0  0  0  0  0  0  0  0  0
    8.1311   -0.0776    0.0000 C   0  0  0  0  0  0  0  0  0
    8.1311    0.7474    0.0000 O   0  0  0  0  0  0  0  0  0
    8.8455   -0.4901    0.0000 N   0  0  0  0  0  0  0  0  0
    9.5600   -0.0776    0.0000 C   0  0  0  0  0  0  0  0  0
    9.5600    0.7474    0.0000 C   0  0  0  0  0  0  0  0  0
   10.2745    1.1599    0.0000 C   0  0  0  0  0  0  0  0  0
   10.9890    0.7474    0.0000 C   0  0  0  0  0  0  0  0  0
   10.9890   -0.0776    0.0000 C   0  0  0  0  0  0  0  0  0
   10.2745   -0.4901    0.0000 C   0  0  0  0  0  0  0  0  0
   11.7034   -0.4901    0.0000 C   0  0  0  0  0  0  0  0  0
   12.4179   -0.0776    0.0000 O   0  0  0  0  0  0  0  0  0
   11.7034   -1.3151    0.0000 C   0  0  0  0  0  0  0  0  0
   10.2745    1.9849    0.0000 C   0  0  0  0  0  0  0  0  0
   10.9890    2.3974    0.0000 O   0  0  0  0  0  0  0  0  0
    9.5600    2.3974    0.0000 C   0  0  0  0  0  0  0  0  0
  1  2  1  0  0  0  0
  2  3  4  0  0  0  0
  2  7  4  0  0  0  0
  3  4  4  0  0  0  0
  4  5  4  0  0  0  0
  5  6  4  0  0  0  0
  5  8  1  0  0  0  0
  6  7  4  0  0  0  0
  8  9  1  0  0  0  0
  9 10  1  0  0  0  0
  9 14  1  0  0  0  0
 10 11  1  0  0  0  0
 11 12  1  0  0  0  0
 11 19  1  0  0  0  0
 12 13  1  0  0  0  0
 12 15  1  0  0  0  0
 13 14  1  0  0  0  0
 15 16  1  0  0  0  0
 16 17  1  0  0  0  0
 17 18  1  0  0  0  0
 19 20  1  0  0  0  0
 20 21  1  0  0  0  0
 21 22  1  0  0  0  0
 22 23  1  0  0  0  0
 23 24  2  0  0  0  0
 23 25  1  0  0  0  0
 25 26  1  0  0  0  0
 26 27  4  0  0  0  0
 26 31  4  0  0  0  0
 27 28  4  0  0  0  0
 28 29  4  0  0  0  0
 28 35  1  0  0  0  0
 29 30  4  0  0  0  0
 30 31  4  0  0  0  0
 30 32  1  0  0  0  0
 32 33  2  0  0  0  0
 32 34  1  0  0  0  0
 35 36  2  0  0  0  0
 35 37  1  0  0  0  0
M  END
>  <Name_Molregno>
367470

>  <Dopamine transporter>
6.22

>  <Norepinephrine transporter>
6.3

>  <Serotonin transporter>
6.67

$$$$
367474
  Marvin  02231216192D 0   1.00000     0.00000     0

 37 39  0  0  1  0  0  0  0  0999 V2000
    2.1183    3.6497    0.0000 F   0  0  0  0  0  0  0  0  0
    2.1183    2.8247    0.0000 C   0  0  0  0  0  0  0  0  0
    2.8328    2.4122    0.0000 C   0  0  0  0  0  0  0  0  0
    2.8328    1.5872    0.0000 C   0  0  0  0  0  0  0  0  0
    2.1183    1.1747    0.0000 C   0  0  0  0  0  0  0  0  0
    1.4038    1.5872    0.0000 C   0  0  0  0  0  0  0  0  0
    1.4038    2.4122    0.0000 C   0  0  0  0  0  0  0  0  0
    2.1183    0.3497    0.0000 C   0  0  0  0  0  0  0  0  0
    2.8328   -0.0628    0.0000 C   0  0  0  0  0  0  0  0  0
    3.5473    0.3497    0.0000 C   0  0  0  0  0  0  0  0  0
    4.2617   -0.0628    0.0000 C   0  0  0  0  0  0  0  0  0
    4.2617   -0.8878    0.0000 N   0  0  0  0  0  0  0  0  0
    3.5473   -1.3003    0.0000 C   0  0  0  0  0  0  0  0  0
    2.8328   -0.8878    0.0000 C   0  0  0  0  0  0  0  0  0
    4.9762   -1.3003    0.0000 C   0  0  0  0  0  0  0  0  0
    4.9762   -2.1253    0.0000 C   0  0  0  0  0  0  0  0  0
    5.6907   -2.5378    0.0000 O   0  0  0  0  0  0  0  0  0
    4.2617   -2.5378    0.0000 C   0  0  0  0  0  0  0  0  0
    4.9762    0.3497    0.0000 C   0  0  0  0  0  0  0  0  0
    5.6907   -0.0628    0.0000 C   0  0  0  0  0  0  0  0  0
    6.4051    0.3497    0.0000 C   0  0  0  0  0  0  0  0  0
    7.1196   -0.0628    0.0000 N   0  0  0  0  0  0  0  0  0
    7.8341    0.3497    0.0000 C   0  0  0  0  0  0  0  0  0
    7.8341    1.1747    0.0000 O   0  0  0  0  0  0  0  0  0
    8.5485   -0.0628    0.0000 N   0  0  0  0  0  0  0  0  0
    9.2630    0.3497    0.0000 C   0  0  0  0  0  0  0  0  0
    9.2630    1.1747    0.0000 C   0  0  0  0  0  0  0  0  0
    9.9775    1.5872    0.0000 C   0  0  0  0  0  0  0  0  0
   10.6920    1.1747    0.0000 C   0  0  0  0  0  0  0  0  0
   10.6920    0.3497    0.0000 C   0  0  0  0  0  0  0  0  0
    9.9775   -0.0628    0.0000 C   0  0  0  0  0  0  0  0  0
   11.4064   -0.0628    0.0000 C   0  0  0  0  0  0  0  0  0
   12.1209    0.3497    0.0000 O   0  0  0  0  0  0  0  0  0
   11.4064   -0.8878    0.0000 C   0  0  0  0  0  0  0  0  0
    9.9775    2.4122    0.0000 C   0  0  0  0  0  0  0  0  0
   10.6920    2.8247    0.0000 O   0  0  0  0  0  0  0  0  0
    9.2630    2.8247    0.0000 C   0  0  0  0  0  0  0  0  0
  1  2  1  0  0  0  0
  2  3  4  0  0  0  0
  2  7  4  0  0  0  0
  3  4  4  0  0  0  0
  4  5  4  0  0  0  0
  5  6  4  0  0  0  0
  5  8  1  0  0  0  0
  6  7  4  0  0  0  0
  8  9  1  0  0  0  0
  9 10  1  0  0  0  0
  9 14  1  0  0  0  0
 10 11  1  0  0  0  0
 11 12  1  0  0  0  0
 11 19  1  0  0  0  0
 12 13  1  0  0  0  0
 12 15  1  0  0  0  0
 13 14  1  0  0  0  0
 15 16  1  0  0  0  0
 16 17  2  0  0  0  0
 16 18  1  0  0  0  0
 19 20  1  0  0  0  0
 20 21  1  0  0  0  0
 21 22  1  0  0  0  0
 22 23  1  0  0  0  0
 23 24  2  0  0  0  0
 23 25  1  0  0  0  0
 25 26  1  0  0  0  0
 26 27  4  0  0  0  0
 26 31  4  0  0  0  0
 27 28  4  0  0  0  0
 28 29  4  0  0  0  0
 28 35  1  0  0  0  0
 29 30  4  0  0  0  0
 30 31  4  0  0  0  0
 30 32  1  0  0  0  0
 32 33  2  0  0  0  0
 32 34  1  0  0  0  0
 35 36  2  0  0  0  0
 35 37  1  0  0  0  0
M  END
>  <Name_Molregno>
367474

>  <Dopamine transporter>
6.12

>  <Norepinephrine transporter>
6.42

>  <Serotonin transporter>
7.96

$$$$
367475
  Marvin  02231216192D 0   1.00000     0.00000     0

 37 39  0  0  1  0  0  0  0  0999 V2000
    2.1183    3.6497    0.0000 F   0  0  0  0  0  0  0  0  0
    2.1183    2.8247    0.0000 C   0  0  0  0  0  0  0  0  0
    2.8328    2.4122    0.0000 C   0  0  0  0  0  0  0  0  0
    2.8328    1.5872    0.0000 C   0  0  0  0  0  0  0  0  0
    2.1183    1.1747    0.0000 C   0  0  0  0  0  0  0  0  0
    1.4038    1.5872    0.0000 C   0  0  0  0  0  0  0  0  0
    1.4038    2.4122    0.0000 C   0  0  0  0  0  0  0  0  0
    2.1183    0.3497    0.0000 C   0  0  0  0  0  0  0  0  0
    2.8328   -0.0628    0.0000 C   0  0  0  0  0  0  0  0  0
    3.5473    0.3497    0.0000 C   0  0  0  0  0  0  0  0  0
    4.2617   -0.0628    0.0000 C   0  0  0  0  0  0  0  0  0
    4.2617   -0.8878    0.0000 N   0  0  0  0  0  0  0  0  0
    3.5473   -1.3003    0.0000 C   0  0  0  0  0  0  0  0  0
    2.8328   -0.8878    0.0000 C   0  0  0  0  0  0  0  0  0
    4.9762   -1.3003    0.0000 C   0  0  0  0  0  0  0  0  0
    4.9762   -2.1253    0.0000 C   0  0  0  0  0  0  0  0  0
    5.6907   -2.5378    0.0000 O   0  0  0  0  0  0  0  0  0
    4.2617   -2.5378    0.0000 N   0  0  0  0  0  0  0  0  0
    4.9762    0.3497    0.0000 C   0  0  0  0  0  0  0  0  0
    5.6907   -0.0628    0.0000 C   0  0  0  0  0  0  0  0  0
    6.4051    0.3497    0.0000 C   0  0  0  0  0  0  0  0  0
    7.1196   -0.0628    0.0000 N   0  0  0  0  0  0  0  0  0
    7.8341    0.3497    0.0000 C   0  0  0  0  0  0  0  0  0
    7.8341    1.1747    0.0000 O   0  0  0  0  0  0  0  0  0
    8.5485   -0.0628    0.0000 N   0  0  0  0  0  0  0  0  0
    9.2630    0.3497    0.0000 C   0  0  0  0  0  0  0  0  0
    9.2630    1.1747    0.0000 C   0  0  0  0  0  0  0  0  0
    9.9775    1.5872    0.0000 C   0  0  0  0  0  0  0  0  0
   10.6920    1.1747    0.0000 C   0  0  0  0  0  0  0  0  0
   10.6920    0.3497    0.0000 C   0  0  0  0  0  0  0  0  0
    9.9775   -0.0628    0.0000 C   0  0  0  0  0  0  0  0  0
   11.4064   -0.0628    0.0000 C   0  0  0  0  0  0  0  0  0
   12.1209    0.3497    0.0000 O   0  0  0  0  0  0  0  0  0
   11.4064   -0.8878    0.0000 C   0  0  0  0  0  0  0  0  0
    9.9775    2.4122    0.0000 C   0  0  0  0  0  0  0  0  0
   10.6920    2.8247    0.0000 O   0  0  0  0  0  0  0  0  0
    9.2630    2.8247    0.0000 C   0  0  0  0  0  0  0  0  0
  1  2  1  0  0  0  0
  2  3  4  0  0  0  0
  2  7  4  0  0  0  0
  3  4  4  0  0  0  0
  4  5  4  0  0  0  0
  5  6  4  0  0  0  0
  5  8  1  0  0  0  0
  6  7  4  0  0  0  0
  8  9  1  0  0  0  0
  9 10  1  0  0  0  0
  9 14  1  0  0  0  0
 10 11  1  0  0  0  0
 11 12  1  0  0  0  0
 11 19  1  0  0  0  0
 12 13  1  0  0  0  0
 12 15  1  0  0  0  0
 13 14  1  0  0  0  0
 15 16  1  0  0  0  0
 16 17  2  0  0  0  0
 16 18  1  0  0  0  0
 19 20  1  0  0  0  0
 20 21  1  0  0  0  0
 21 22  1  0  0  0  0
 22 23  1  0  0  0  0
 23 24  2  0  0  0  0
 23 25  1  0  0  0  0
 25 26  1  0  0  0  0
 26 27  4  0  0  0  0
 26 31  4  0  0  0  0
 27 28  4  0  0  0  0
 28 29  4  0  0  0  0
 28 35  1  0  0  0  0
 29 30  4  0  0  0  0
 30 31  4  0  0  0  0
 30 32  1  0  0  0  0
 32 33  2  0  0  0  0
 32 34  1  0  0  0  0
 35 36  2  0  0  0  0
 35 37  1  0  0  0  0
M  END
>  <Name_Molregno>
367475

>  <Dopamine transporter>
5.58

>  <Norepinephrine transporter>
5.3

>  <Serotonin transporter>
6.15

$$$$
367480
  Marvin  02231216192D 0   1.00000     0.00000     0

 36 38  0  0  1  0  0  0  0  0999 V2000
   -0.4444   -0.5418    0.0000 F   0  0  0  0  0  0  0  0  0
    0.2700   -0.1293    0.0000 C   0  0  0  0  0  0  0  0  0
    0.2700    0.6957    0.0000 C   0  0  0  0  0  0  0  0  0
    0.9845    1.1082    0.0000 C   0  0  0  0  0  0  0  0  0
    1.6990    0.6957    0.0000 C   0  0  0  0  0  0  0  0  0
    1.6990   -0.1293    0.0000 C   0  0  0  0  0  0  0  0  0
    0.9845   -0.5418    0.0000 C   0  0  0  0  0  0  0  0  0
    2.4135    1.1082    0.0000 C   0  0  0  0  0  0  0  0  0
    3.1279    0.6957    0.0000 C   0  0  0  0  0  0  0  0  0
    3.8424    1.1082    0.0000 C   0  0  0  0  0  0  0  0  0
    4.5569    0.6957    0.0000 C   0  0  0  0  0  0  0  0  0
    4.5569   -0.1293    0.0000 N   0  0  0  0  0  0  0  0  0
    3.8424   -0.5418    0.0000 C   0  0  0  0  0  0  0  0  0
    3.1279   -0.1293    0.0000 C   0  0  0  0  0  0  0  0  0
    5.2713   -0.5418    0.0000 C   0  0  0  0  0  0  0  0  0
    5.9858   -0.1293    0.0000 C   0  0  0  0  0  0  0  0  0
    6.7003   -0.5418    0.0000 F   0  0  0  0  0  0  0  0  0
    5.2713    1.1082    0.0000 C   0  0  0  0  0  0  0  0  0
    5.9858    0.6957    0.0000 C   0  0  0  0  0  0  0  0  0
    6.7003    1.1082    0.0000 C   0  0  0  0  0  0  0  0  0
    7.4148    0.6957    0.0000 N   0  0  0  0  0  0  0  0  0
    8.1292    1.1082    0.0000 C   0  0  0  0  0  0  0  0  0
    8.1292    1.9332    0.0000 O   0  0  0  0  0  0  0  0  0
    8.8437    0.6957    0.0000 N   0  0  0  0  0  0  0  0  0
    9.5582    1.1082    0.0000 C   0  0  0  0  0  0  0  0  0
    9.5582    1.9332    0.0000 C   0  0  0  0  0  0  0  0  0
   10.2726    2.3457    0.0000 C   0  0  0  0  0  0  0  0  0
   10.9871    1.9332    0.0000 C   0  0  0  0  0  0  0  0  0
   10.9871    1.1082    0.0000 C   0  0  0  0  0  0  0  0  0
   10.2726    0.6957    0.0000 C   0  0  0  0  0  0  0  0  0
   11.7016    0.6957    0.0000 C   0  0  0  0  0  0  0  0  0
   12.4160    1.1082    0.0000 O   0  0  0  0  0  0  0  0  0
   11.7016   -0.1293    0.0000 C   0  0  0  0  0  0  0  0  0
   10.2726    3.1707    0.0000 C   0  0  0  0  0  0  0  0  0
   10.9871    3.5832    0.0000 O   0  0  0  0  0  0  0  0  0
    9.5582    3.5832    0.0000 C   0  0  0  0  0  0  0  0  0
  1  2  1  0  0  0  0
  2  3  4  0  0  0  0
  2  7  4  0  0  0  0
  3  4  4  0  0  0  0
  4  5  4  0  0  0  0
  5  6  4  0  0  0  0
  5  8  1  0  0  0  0
  6  7  4  0  0  0  0
  8  9  1  0  0  0  0
  9 10  1  0  0  0  0
  9 14  1  0  0  0  0
 10 11  1  0  0  0  0
 11 12  1  0  0  0  0
 11 18  1  0  0  0  0
 12 13  1  0  0  0  0
 12 15  1  0  0  0  0
 13 14  1  0  0  0  0
 15 16  1  0  0  0  0
 16 17  1  0  0  0  0
 18 19  1  0  0  0  0
 19 20  1  0  0  0  0
 20 21  1  0  0  0  0
 21 22  1  0  0  0  0
 22 23  2  0  0  0  0
 22 24  1  0  0  0  0
 24 25  1  0  0  0  0
 25 26  4  0  0  0  0
 25 30  4  0  0  0  0
 26 27  4  0  0  0  0
 27 28  4  0  0  0  0
 27 34  1  0  0  0  0
 28 29  4  0  0  0  0
 29 30  4  0  0  0  0
 29 31  1  0  0  0  0
 31 32  2  0  0  0  0
 31 33  1  0  0  0  0
 34 35  2  0  0  0  0
 34 36  1  0  0  0  0
M  END
>  <Name_Molregno>
367480

>  <Dopamine transporter>
6.19

>  <Norepinephrine transporter>
6.5

>  <Serotonin transporter>
7.31

$$$$
367481
  Marvin  02231216192D 0   1.00000     0.00000     0

 36 38  0  0  1  0  0  0  0  0999 V2000
   -0.4003   -0.9955    0.0000 F   0  0  0  0  0  0  0  0  0
    0.3141   -0.5830    0.0000 C   0  0  0  0  0  0  0  0  0
    0.3141    0.2420    0.0000 C   0  0  0  0  0  0  0  0  0
    1.0286    0.6545    0.0000 C   0  0  0  0  0  0  0  0  0
    1.7431    0.2420    0.0000 C   0  0  0  0  0  0  0  0  0
    1.7431   -0.5830    0.0000 C   0  0  0  0  0  0  0  0  0
    1.0286   -0.9955    0.0000 C   0  0  0  0  0  0  0  0  0
    2.4575    0.6545    0.0000 C   0  0  0  0  0  0  0  0  0
    3.1720    0.2420    0.0000 C   0  0  0  0  0  0  0  0  0
    3.8865    0.6545    0.0000 C   0  0  0  0  0  0  0  0  0
    4.6010    0.2420    0.0000 C   0  0  0  0  0  0  0  0  0
    4.6010   -0.5830    0.0000 N   0  0  0  0  0  0  0  0  0
    3.8865   -0.9955    0.0000 C   0  0  0  0  0  0  0  0  0
    3.1720   -0.5830    0.0000 C   0  0  0  0  0  0  0  0  0
    5.3154   -0.9955    0.0000 C   0  0  0  0  0  0  0  0  0
    5.3154   -1.8205    0.0000 C   0  0  0  0  0  0  0  0  0
    5.3154   -2.6455    0.0000 C   0  0  0  0  0  0  0  0  0
    5.3154    0.6545    0.0000 C   0  0  0  0  0  0  0  0  0
    6.0299    0.2420    0.0000 C   0  0  0  0  0  0  0  0  0
    6.7444    0.6545    0.0000 C   0  0  0  0  0  0  0  0  0
    7.4588    0.2420    0.0000 N   0  0  0  0  0  0  0  0  0
    8.1733    0.6545    0.0000 C   0  0  0  0  0  0  0  0  0
    8.1733    1.4795    0.0000 O   0  0  0  0  0  0  0  0  0
    8.8878    0.2420    0.0000 N   0  0  0  0  0  0  0  0  0
    9.6023    0.6545    0.0000 C   0  0  0  0  0  0  0  0  0
    9.6023    1.4795    0.0000 C   0  0  0  0  0  0  0  0  0
   10.3167    1.8920    0.0000 C   0  0  0  0  0  0  0  0  0
   11.0312    1.4795    0.0000 C   0  0  0  0  0  0  0  0  0
   11.0312    0.6545    0.0000 C   0  0  0  0  0  0  0  0  0
   10.3167    0.2420    0.0000 C   0  0  0  0  0  0  0  0  0
   11.7457    0.2420    0.0000 C   0  0  0  0  0  0  0  0  0
   12.4601    0.6545    0.0000 O   0  0  0  0  0  0  0  0  0
   11.7457   -0.5830    0.0000 C   0  0  0  0  0  0  0  0  0
   10.3167    2.7170    0.0000 C   0  0  0  0  0  0  0  0  0
   11.0312    3.1295    0.0000 O   0  0  0  0  0  0  0  0  0
    9.6023    3.1295    0.0000 C   0  0  0  0  0  0  0  0  0
  1  2  1  0  0  0  0
  2  3  4  0  0  0  0
  2  7  4  0  0  0  0
  3  4  4  0  0  0  0
  4  5  4  0  0  0  0
  5  6  4  0  0  0  0
  5  8  1  0  0  0  0
  6  7  4  0  0  0  0
  8  9  1  0  0  0  0
  9 10  1  0  0  0  0
  9 14  1  0  0  0  0
 10 11  1  0  0  0  0
 11 12  1  0  0  0  0
 11 18  1  0  0  0  0
 12 13  1  0  0  0  0
 12 15  1  0  0  0  0
 13 14  1  0  0  0  0
 15 16  1  0  0  0  0
 16 17  3  0  0  0  0
 18 19  1  0  0  0  0
 19 20  1  0  0  0  0
 20 21  1  0  0  0  0
 21 22  1  0  0  0  0
 22 23  2  0  0  0  0
 22 24  1  0  0  0  0
 24 25  1  0  0  0  0
 25 26  4  0  0  0  0
 25 30  4  0  0  0  0
 26 27  4  0  0  0  0
 27 28  4  0  0  0  0
 27 34  1  0  0  0  0
 28 29  4  0  0  0  0
 29 30  4  0  0  0  0
 29 31  1  0  0  0  0
 31 32  2  0  0  0  0
 31 33  1  0  0  0  0
 34 35  2  0  0  0  0
 34 36  1  0  0  0  0
M  END
>  <Name_Molregno>
367481

>  <Dopamine transporter>
6.21

>  <Norepinephrine transporter>
6.28

>  <Serotonin transporter>
6.52

$$$$
367486
  Marvin  02231216192D 0   1.00000     0.00000     0

 37 39  0  0  1  0  0  0  0  0999 V2000
    2.1183    3.6497    0.0000 F   0  0  0  0  0  0  0  0  0
    2.1183    2.8247    0.0000 C   0  0  0  0  0  0  0  0  0
    2.8328    2.4122    0.0000 C   0  0  0  0  0  0  0  0  0
    2.8328    1.5872    0.0000 C   0  0  0  0  0  0  0  0  0
    2.1183    1.1747    0.0000 C   0  0  0  0  0  0  0  0  0
    1.4038    1.5872    0.0000 C   0  0  0  0  0  0  0  0  0
    1.4038    2.4122    0.0000 C   0  0  0  0  0  0  0  0  0
    2.1183    0.3497    0.0000 C   0  0  0  0  0  0  0  0  0
    2.8328   -0.0628    0.0000 C   0  0  0  0  0  0  0  0  0
    3.5473    0.3497    0.0000 C   0  0  0  0  0  0  0  0  0
    4.2617   -0.0628    0.0000 C   0  0  0  0  0  0  0  0  0
    4.2617   -0.8878    0.0000 N   0  0  0  0  0  0  0  0  0
    3.5473   -1.3003    0.0000 C   0  0  0  0  0  0  0  0  0
    2.8328   -0.8878    0.0000 C   0  0  0  0  0  0  0  0  0
    4.9762   -1.3003    0.0000 C   0  0  0  0  0  0  0  0  0
    4.9762   -2.1253    0.0000 C   0  0  0  0  0  0  0  0  0
    5.6907   -2.5378    0.0000 F   0  0  0  0  0  0  0  0  0
    4.2617   -2.5378    0.0000 F   0  0  0  0  0  0  0  0  0
    4.9762    0.3497    0.0000 C   0  0  0  0  0  0  0  0  0
    5.6907   -0.0628    0.0000 C   0  0  0  0  0  0  0  0  0
    6.4051    0.3497    0.0000 C   0  0  0  0  0  0  0  0  0
    7.1196   -0.0628    0.0000 N   0  0  0  0  0  0  0  0  0
    7.8341    0.3497    0.0000 C   0  0  0  0  0  0  0  0  0
    7.8341    1.1747    0.0000 O   0  0  0  0  0  0  0  0  0
    8.5485   -0.0628    0.0000 N   0  0  0  0  0  0  0  0  0
    9.2630    0.3497    0.0000 C   0  0  0  0  0  0  0  0  0
    9.2630    1.1747    0.0000 C   0  0  0  0  0  0  0  0  0
    9.9775    1.5872    0.0000 C   0  0  0  0  0  0  0  0  0
   10.6920    1.1747    0.0000 C   0  0  0  0  0  0  0  0  0
   10.6920    0.3497    0.0000 C   0  0  0  0  0  0  0  0  0
    9.9775   -0.0628    0.0000 C   0  0  0  0  0  0  0  0  0
   11.4064   -0.0628    0.0000 C   0  0  0  0  0  0  0  0  0
   12.1209    0.3497    0.0000 O   0  0  0  0  0  0  0  0  0
   11.4064   -0.8878    0.0000 C   0  0  0  0  0  0  0  0  0
    9.9775    2.4122    0.0000 C   0  0  0  0  0  0  0  0  0
   10.6920    2.8247    0.0000 O   0  0  0  0  0  0  0  0  0
    9.2630    2.8247    0.0000 C   0  0  0  0  0  0  0  0  0
  1  2  1  0  0  0  0
  2  3  4  0  0  0  0
  2  7  4  0  0  0  0
  3  4  4  0  0  0  0
  4  5  4  0  0  0  0
  5  6  4  0  0  0  0
  5  8  1  0  0  0  0
  6  7  4  0  0  0  0
  8  9  1  0  0  0  0
  9 10  1  0  0  0  0
  9 14  1  0  0  0  0
 10 11  1  0  0  0  0
 11 12  1  0  0  0  0
 11 19  1  0  0  0  0
 12 13  1  0  0  0  0
 12 15  1  0  0  0  0
 13 14  1  0  0  0  0
 15 16  1  0  0  0  0
 16 17  1  0  0  0  0
 16 18  1  0  0  0  0
 19 20  1  0  0  0  0
 20 21  1  0  0  0  0
 21 22  1  0  0  0  0
 22 23  1  0  0  0  0
 23 24  2  0  0  0  0
 23 25  1  0  0  0  0
 25 26  1  0  0  0  0
 26 27  4  0  0  0  0
 26 31  4  0  0  0  0
 27 28  4  0  0  0  0
 28 29  4  0  0  0  0
 28 35  1  0  0  0  0
 29 30  4  0  0  0  0
 30 31  4  0  0  0  0
 30 32  1  0  0  0  0
 32 33  2  0  0  0  0
 32 34  1  0  0  0  0
 35 36  2  0  0  0  0
 35 37  1  0  0  0  0
M  END
>  <Name_Molregno>
367486

>  <Dopamine transporter>
6.03

>  <Norepinephrine transporter>
5.98

>  <Serotonin transporter>
6.48

$$$$
367491
  Marvin  02231216192D 0   1.00000     0.00000     0

 36 38  0  0  1  0  0  0  0  0999 V2000
   -0.3757   -1.6787    0.0000 F   0  0  0  0  0  0  0  0  0
    0.3388   -1.2662    0.0000 C   0  0  0  0  0  0  0  0  0
    0.3388   -0.4412    0.0000 C   0  0  0  0  0  0  0  0  0
    1.0532   -0.0287    0.0000 C   0  0  0  0  0  0  0  0  0
    1.7677   -0.4412    0.0000 C   0  0  0  0  0  0  0  0  0
    1.7677   -1.2662    0.0000 C   0  0  0  0  0  0  0  0  0
    1.0532   -1.6787    0.0000 C   0  0  0  0  0  0  0  0  0
    2.4822   -0.0287    0.0000 C   0  0  0  0  0  0  0  0  0
    3.1966   -0.4412    0.0000 C   0  0  0  0  0  0  0  0  0
    3.9111   -0.0287    0.0000 C   0  0  0  0  0  0  0  0  0
    4.6256   -0.4412    0.0000 C   0  0  0  0  0  0  0  0  0
    4.6256   -1.2662    0.0000 N   0  0  0  0  0  0  0  0  0
    3.9111   -1.6787    0.0000 C   0  0  0  0  0  0  0  0  0
    3.1966   -1.2662    0.0000 C   0  0  0  0  0  0  0  0  0
    5.3401   -1.6787    0.0000 C   0  0  0  0  0  0  0  0  0
    5.3401   -2.5037    0.0000 O   0  0  0  0  0  0  0  0  0
    6.0545   -1.2662    0.0000 C   0  0  0  0  0  0  0  0  0
    5.3401   -0.0287    0.0000 C   0  0  0  0  0  0  0  0  0
    6.0545   -0.4412    0.0000 C   0  0  0  0  0  0  0  0  0
    6.7690   -0.0287    0.0000 C   0  0  0  0  0  0  0  0  0
    7.4835   -0.4412    0.0000 N   0  0  0  0  0  0  0  0  0
    8.1979   -0.0287    0.0000 C   0  0  0  0  0  0  0  0  0
    8.1979    0.7963    0.0000 O   0  0  0  0  0  0  0  0  0
    8.9124   -0.4412    0.0000 N   0  0  0  0  0  0  0  0  0
    9.6269   -0.0287    0.0000 C   0  0  0  0  0  0  0  0  0
    9.6269    0.7963    0.0000 C   0  0  0  0  0  0  0  0  0
   10.3413    1.2088    0.0000 C   0  0  0  0  0  0  0  0  0
   11.0558    0.7963    0.0000 C   0  0  0  0  0  0  0  0  0
   11.0558   -0.0287    0.0000 C   0  0  0  0  0  0  0  0  0
   10.3413   -0.4412    0.0000 C   0  0  0  0  0  0  0  0  0
   11.7703   -0.4412    0.0000 C   0  0  0  0  0  0  0  0  0
   12.4848   -0.0287    0.0000 O   0  0  0  0  0  0  0  0  0
   11.7703   -1.2662    0.0000 C   0  0  0  0  0  0  0  0  0
   10.3413    2.0338    0.0000 C   0  0  0  0  0  0  0  0  0
   11.0558    2.4463    0.0000 O   0  0  0  0  0  0  0  0  0
    9.6269    2.4463    0.0000 C   0  0  0  0  0  0  0  0  0
  1  2  1  0  0  0  0
  2  3  4  0  0  0  0
  2  7  4  0  0  0  0
  3  4  4  0  0  0  0
  4  5  4  0  0  0  0
  5  6  4  0  0  0  0
  5  8  1  0  0  0  0
  6  7  4  0  0  0  0
  8  9  1  0  0  0  0
  9 10  1  0  0  0  0
  9 14  1  0  0  0  0
 10 11  1  0  0  0  0
 11 12  1  0  0  0  0
 11 18  1  0  0  0  0
 12 13  1  0  0  0  0
 12 15  1  0  0  0  0
 13 14  1  0  0  0  0
 15 16  2  0  0  0  0
 15 17  1  0  0  0  0
 18 19  1  0  0  0  0
 19 20  1  0  0  0  0
 20 21  1  0  0  0  0
 21 22  1  0  0  0  0
 22 23  2  0  0  0  0
 22 24  1  0  0  0  0
 24 25  1  0  0  0  0
 25 26  4  0  0  0  0
 25 30  4  0  0  0  0
 26 27  4  0  0  0  0
 27 28  4  0  0  0  0
 27 34  1  0  0  0  0
 28 29  4  0  0  0  0
 29 30  4  0  0  0  0
 29 31  1  0  0  0  0
 31 32  2  0  0  0  0
 31 33  1  0  0  0  0
 34 35  2  0  0  0  0
 34 36  1  0  0  0  0
M  END
>  <Name_Molregno>
367491

>  <Dopamine transporter>
5.91

>  <Norepinephrine transporter>
5.86

>  <Serotonin transporter>
5.26

$$$$
367496
  Marvin  02231216192D 0   1.00000     0.00000     0

 37 39  0  0  1  0  0  0  0  0999 V2000
   -0.4281   -1.7510    0.0000 F   0  0  0  0  0  0  0  0  0
    0.2864   -1.3385    0.0000 C   0  0  0  0  0  0  0  0  0
    0.2864   -0.5135    0.0000 C   0  0  0  0  0  0  0  0  0
    1.0009   -0.1010    0.0000 C   0  0  0  0  0  0  0  0  0
    1.7154   -0.5135    0.0000 C   0  0  0  0  0  0  0  0  0
    1.7154   -1.3385    0.0000 C   0  0  0  0  0  0  0  0  0
    1.0009   -1.7510    0.0000 C   0  0  0  0  0  0  0  0  0
    2.4298   -0.1010    0.0000 C   0  0  0  0  0  0  0  0  0
    3.1443   -0.5135    0.0000 C   0  0  0  0  0  0  0  0  0
    3.8588   -0.1010    0.0000 C   0  0  0  0  0  0  0  0  0
    4.5732   -0.5135    0.0000 C   0  0  0  0  0  0  0  0  0
    4.5732   -1.3385    0.0000 N   0  0  0  0  0  0  0  0  0
    3.8588   -1.7510    0.0000 C   0  0  0  0  0  0  0  0  0
    3.1443   -1.3385    0.0000 C   0  0  0  0  0  0  0  0  0
    5.2877   -1.7510    0.0000 C   0  0  0  0  0  0  0  0  0
    5.2877   -2.5760    0.0000 O   0  0  0  0  0  0  0  0  0
    6.0022   -1.3385    0.0000 C   0  0  0  0  0  0  0  0  0
    6.7167   -1.7510    0.0000 C   0  0  0  0  0  0  0  0  0
    5.2877   -0.1010    0.0000 C   0  0  0  0  0  0  0  0  0
    6.0022   -0.5135    0.0000 C   0  0  0  0  0  0  0  0  0
    6.7167   -0.1010    0.0000 C   0  0  0  0  0  0  0  0  0
    7.4311   -0.5135    0.0000 N   0  0  0  0  0  0  0  0  0
    8.1456   -0.1010    0.0000 C   0  0  0  0  0  0  0  0  0
    8.1456    0.7240    0.0000 O   0  0  0  0  0  0  0  0  0
    8.8601   -0.5135    0.0000 N   0  0  0  0  0  0  0  0  0
    9.5745   -0.1010    0.0000 C   0  0  0  0  0  0  0  0  0
    9.5745    0.7240    0.0000 C   0  0  0  0  0  0  0  0  0
   10.2890    1.1365    0.0000 C   0  0  0  0  0  0  0  0  0
   11.0035    0.7240    0.0000 C   0  0  0  0  0  0  0  0  0
   11.0035   -0.1010    0.0000 C   0  0  0  0  0  0  0  0  0
   10.2890   -0.5135    0.0000 C   0  0  0  0  0  0  0  0  0
   11.7180   -0.5135    0.0000 C   0  0  0  0  0  0  0  0  0
   12.4324   -0.1010    0.0000 O   0  0  0  0  0  0  0  0  0
   11.7180   -1.3385    0.0000 C   0  0  0  0  0  0  0  0  0
   10.2890    1.9615    0.0000 C   0  0  0  0  0  0  0  0  0
   11.0035    2.3740    0.0000 O   0  0  0  0  0  0  0  0  0
    9.5745    2.3740    0.0000 C   0  0  0  0  0  0  0  0  0
  1  2  1  0  0  0  0
  2  3  4  0  0  0  0
  2  7  4  0  0  0  0
  3  4  4  0  0  0  0
  4  5  4  0  0  0  0
  5  6  4  0  0  0  0
  5  8  1  0  0  0  0
  6  7  4  0  0  0  0
  8  9  1  0  0  0  0
  9 10  1  0  0  0  0
  9 14  1  0  0  0  0
 10 11  1  0  0  0  0
 11 12  1  0  0  0  0
 11 19  1  0  0  0  0
 12 13  1  0  0  0  0
 12 15  1  0  0  0  0
 13 14  1  0  0  0  0
 15 16  2  0  0  0  0
 15 17  1  0  0  0  0
 17 18  1  0  0  0  0
 19 20  1  0  0  0  0
 20 21  1  0  0  0  0
 21 22  1  0  0  0  0
 22 23  1  0  0  0  0
 23 24  2  0  0  0  0
 23 25  1  0  0  0  0
 25 26  1  0  0  0  0
 26 27  4  0  0  0  0
 26 31  4  0  0  0  0
 27 28  4  0  0  0  0
 28 29  4  0  0  0  0
 28 35  1  0  0  0  0
 29 30  4  0  0  0  0
 30 31  4  0  0  0  0
 30 32  1  0  0  0  0
 32 33  2  0  0  0  0
 32 34  1  0  0  0  0
 35 36  2  0  0  0  0
 35 37  1  0  0  0  0
M  END
>  <Name_Molregno>
367496

>  <Dopamine transporter>
5.68

>  <Norepinephrine transporter>
5.03

>  <Serotonin transporter>
6.65

$$$$
367497
  Marvin  02231216192D 0   1.00000     0.00000     0

 36 38  0  0  1  0  0  0  0  0999 V2000
   -0.3757   -1.6787    0.0000 F   0  0  0  0  0  0  0  0  0
    0.3388   -1.2662    0.0000 C   0  0  0  0  0  0  0  0  0
    0.3388   -0.4412    0.0000 C   0  0  0  0  0  0  0  0  0
    1.0532   -0.0287    0.0000 C   0  0  0  0  0  0  0  0  0
    1.7677   -0.4412    0.0000 C   0  0  0  0  0  0  0  0  0
    1.7677   -1.2662    0.0000 C   0  0  0  0  0  0  0  0  0
    1.0532   -1.6787    0.0000 C   0  0  0  0  0  0  0  0  0
    2.4822   -0.0287    0.0000 C   0  0  0  0  0  0  0  0  0
    3.1966   -0.4412    0.0000 C   0  0  0  0  0  0  0  0  0
    3.9111   -0.0287    0.0000 C   0  0  0  0  0  0  0  0  0
    4.6256   -0.4412    0.0000 C   0  0  0  0  0  0  0  0  0
    4.6256   -1.2662    0.0000 N   0  0  0  0  0  0  0  0  0
    3.9111   -1.6787    0.0000 C   0  0  0  0  0  0  0  0  0
    3.1966   -1.2662    0.0000 C   0  0  0  0  0  0  0  0  0
    5.3401   -1.6787    0.0000 C   0  0  0  0  0  0  0  0  0
    5.3401   -2.5037    0.0000 N   0  0  0  0  0  0  0  0  0
    6.0545   -1.2662    0.0000 N   0  0  0  0  0  0  0  0  0
    5.3401   -0.0287    0.0000 C   0  0  0  0  0  0  0  0  0
    6.0545   -0.4412    0.0000 C   0  0  0  0  0  0  0  0  0
    6.7690   -0.0287    0.0000 C   0  0  0  0  0  0  0  0  0
    7.4835   -0.4412    0.0000 N   0  0  0  0  0  0  0  0  0
    8.1979   -0.0287    0.0000 C   0  0  0  0  0  0  0  0  0
    8.1979    0.7963    0.0000 O   0  0  0  0  0  0  0  0  0
    8.9124   -0.4412    0.0000 N   0  0  0  0  0  0  0  0  0
    9.6269   -0.0287    0.0000 C   0  0  0  0  0  0  0  0  0
    9.6269    0.7963    0.0000 C   0  0  0  0  0  0  0  0  0
   10.3413    1.2088    0.0000 C   0  0  0  0  0  0  0  0  0
   11.0558    0.7963    0.0000 C   0  0  0  0  0  0  0  0  0
   11.0558   -0.0287    0.0000 C   0  0  0  0  0  0  0  0  0
   10.3413   -0.4412    0.0000 C   0  0  0  0  0  0  0  0  0
   11.7703   -0.4412    0.0000 C   0  0  0  0  0  0  0  0  0
   12.4848   -0.0287    0.0000 O   0  0  0  0  0  0  0  0  0
   11.7703   -1.2662    0.0000 C   0  0  0  0  0  0  0  0  0
   10.3413    2.0338    0.0000 C   0  0  0  0  0  0  0  0  0
   11.0558    2.4463    0.0000 O   0  0  0  0  0  0  0  0  0
    9.6269    2.4463    0.0000 C   0  0  0  0  0  0  0  0  0
  1  2  1  0  0  0  0
  2  3  4  0  0  0  0
  2  7  4  0  0  0  0
  3  4  4  0  0  0  0
  4  5  4  0  0  0  0
  5  6  4  0  0  0  0
  5  8  1  0  0  0  0
  6  7  4  0  0  0  0
  8  9  1  0  0  0  0
  9 10  1  0  0  0  0
  9 14  1  0  0  0  0
 10 11  1  0  0  0  0
 11 12  1  0  0  0  0
 11 18  1  0  0  0  0
 12 13  1  0  0  0  0
 12 15  1  0  0  0  0
 13 14  1  0  0  0  0
 15 16  1  0  0  0  0
 15 17  2  0  0  0  0
 18 19  1  0  0  0  0
 19 20  1  0  0  0  0
 20 21  1  0  0  0  0
 21 22  1  0  0  0  0
 22 23  2  0  0  0  0
 22 24  1  0  0  0  0
 24 25  1  0  0  0  0
 25 26  4  0  0  0  0
 25 30  4  0  0  0  0
 26 27  4  0  0  0  0
 27 28  4  0  0  0  0
 27 34  1  0  0  0  0
 28 29  4  0  0  0  0
 29 30  4  0  0  0  0
 29 31  1  0  0  0  0
 31 32  2  0  0  0  0
 31 33  1  0  0  0  0
 34 35  2  0  0  0  0
 34 36  1  0  0  0  0
M  END
>  <Name_Molregno>
367497

>  <Dopamine transporter>
7.51

>  <Norepinephrine transporter>
6.41

>  <Serotonin transporter>
7.72

$$$$
367508
  Marvin  02231216192D 0   1.00000     0.00000     0

 28 30  0  0  1  0  0  0  0  0999 V2000
   -4.6371   -1.5554    0.0000 O   0  0  0  0  0  0  0  0  0
   -4.6371   -0.7304    0.0000 C   0  0  0  0  0  0  0  0  0
   -5.3515   -0.3179    0.0000 N   0  0  0  0  0  0  0  0  0
   -6.0660   -0.7304    0.0000 C   0  0  0  0  0  0  0  0  0
   -6.0660   -1.5554    0.0000 C   0  0  0  0  0  0  0  0  0
   -6.7805   -1.9679    0.0000 C   0  0  0  0  0  0  0  0  0
   -7.4949   -1.5554    0.0000 C   0  0  0  0  0  0  0  0  0
   -7.4949   -0.7304    0.0000 C   0  0  0  0  0  0  0  0  0
   -6.7805   -0.3179    0.0000 C   0  0  0  0  0  0  0  0  0
   -6.7805   -2.7929    0.0000 C   0  0  0  0  0  0  0  0  0
   -6.7805   -3.6179    0.0000 N   0  0  0  0  0  0  0  0  0
   -3.9226   -0.3179    0.0000 N   0  0  0  0  0  0  0  0  0
   -3.2081   -0.7304    0.0000 C   0  0  0  0  0  0  0  0  0
   -2.4936   -0.3179    0.0000 C   0  0  0  0  0  0  0  0  0
   -1.7792   -0.7304    0.0000 C   0  0  0  0  0  0  0  0  0
   -1.0647   -0.3179    0.0000 C   0  0  0  0  0  0  0  0  0
   -1.0647    0.5071    0.0000 N   0  0  0  0  0  0  0  0  0
   -0.3502    0.9196    0.0000 C   0  0  0  0  0  0  0  0  0
    0.3642    0.5071    0.0000 C   0  0  0  0  0  0  0  0  0
    0.3642   -0.3179    0.0000 C   0  0  0  0  0  0  0  0  0
   -0.3502   -0.7304    0.0000 C   0  0  0  0  0  0  0  0  0
    1.0787   -0.7304    0.0000 C   0  0  0  0  0  0  0  0  0
    1.7932   -0.3179    0.0000 C   0  0  0  0  0  0  0  0  0
    1.7932    0.5071    0.0000 C   0  0  0  0  0  0  0  0  0
    2.5077    0.9196    0.0000 C   0  0  0  0  0  0  0  0  0
    3.2221    0.5071    0.0000 C   0  0  0  0  0  0  0  0  0
    3.2221   -0.3179    0.0000 C   0  0  0  0  0  0  0  0  0
    2.5077   -0.7304    0.0000 C   0  0  0  0  0  0  0  0  0
  1  2  2  0  0  0  0
  2  3  1  0  0  0  0
  2 12  1  0  0  0  0
  3  4  1  0  0  0  0
  4  5  4  0  0  0  0
  4  9  4  0  0  0  0
  5  6  4  0  0  0  0
  6  7  4  0  0  0  0
  6 10  1  0  0  0  0
  7  8  4  0  0  0  0
  8  9  4  0  0  0  0
 10 11  3  0  0  0  0
 12 13  1  0  0  0  0
 13 14  1  0  0  0  0
 14 15  1  0  0  0  0
 15 16  1  0  0  0  0
 16 17  1  0  0  0  0
 16 21  1  0  0  0  0
 17 18  1  0  0  0  0
 18 19  1  0  0  0  0
 19 20  1  0  0  0  0
 20 21  1  0  0  0  0
 20 22  1  0  0  0  0
 22 23  1  0  0  0  0
 23 24  4  0  0  0  0
 23 28  4  0  0  0  0
 24 25  4  0  0  0  0
 25 26  4  0  0  0  0
 26 27  4  0  0  0  0
 27 28  4  0  0  0  0
M  END
>  <Name_Molregno>
367508

>  <Dopamine transporter>
7.73

>  <Norepinephrine transporter>
7.39

>  <Serotonin transporter>
7.37

$$$$
367530
  Marvin  02231216192D 0   1.00000     0.00000     0

 29 31  0  0  1  0  0  0  0  0999 V2000
  -10.1489   -1.1602    0.0000 O   0  0  0  0  0  0  0  0  0
   -9.4344   -0.7477    0.0000 C   0  0  0  0  0  0  0  0  0
   -9.4344    0.0773    0.0000 C   0  0  0  0  0  0  0  0  0
   -8.7200   -1.1602    0.0000 C   0  0  0  0  0  0  0  0  0
   -8.0055   -0.7477    0.0000 C   0  0  0  0  0  0  0  0  0
   -7.2910   -1.1602    0.0000 C   0  0  0  0  0  0  0  0  0
   -6.5766   -0.7477    0.0000 N   0  0  0  0  0  0  0  0  0
   -5.8621   -1.1602    0.0000 C   0  0  0  0  0  0  0  0  0
   -5.8621   -1.9852    0.0000 O   0  0  0  0  0  0  0  0  0
   -5.1476   -0.7477    0.0000 N   0  0  0  0  0  0  0  0  0
   -4.4331   -1.1602    0.0000 C   0  0  0  0  0  0  0  0  0
   -3.7187   -0.7477    0.0000 C   0  0  0  0  0  0  0  0  0
   -3.0042   -1.1602    0.0000 C   0  0  0  0  0  0  0  0  0
   -2.2897   -0.7477    0.0000 C   0  0  0  0  0  0  0  0  0
   -2.2897    0.0773    0.0000 N   0  0  0  0  0  0  0  0  0
   -1.5753    0.4898    0.0000 C   0  0  0  0  0  0  0  0  0
   -0.8608    0.0773    0.0000 C   0  0  0  0  0  0  0  0  0
   -0.8608   -0.7477    0.0000 C   0  0  0  0  0  0  0  0  0
   -1.5753   -1.1602    0.0000 C   0  0  0  0  0  0  0  0  0
   -0.1463   -1.1602    0.0000 C   0  0  0  0  0  0  0  0  0
   -0.1463   -1.9852    0.0000 C   0  0  0  0  0  0  0  0  0
    0.5681   -2.3977    0.0000 C   0  0  0  0  0  0  0  0  0
    0.5681   -3.2227    0.0000 C   0  0  0  0  0  0  0  0  0
   -0.1463   -3.6352    0.0000 C   0  0  0  0  0  0  0  0  0
   -0.8608   -3.2227    0.0000 C   0  0  0  0  0  0  0  0  0
   -0.8608   -2.3977    0.0000 C   0  0  0  0  0  0  0  0  0
   -7.2910   -1.9852    0.0000 C   0  0  0  0  0  0  0  0  0
   -8.0055   -2.3977    0.0000 C   0  0  0  0  0  0  0  0  0
   -8.7200   -1.9852    0.0000 C   0  0  0  0  0  0  0  0  0
  1  2  2  0  0  0  0
  2  3  1  0  0  0  0
  2  4  1  0  0  0  0
  4  5  4  0  0  0  0
  4 29  4  0  0  0  0
  5  6  4  0  0  0  0
  6  7  1  0  0  0  0
  6 27  4  0  0  0  0
  7  8  1  0  0  0  0
  8  9  2  0  0  0  0
  8 10  1  0  0  0  0
 10 11  1  0  0  0  0
 11 12  1  0  0  0  0
 12 13  1  0  0  0  0
 13 14  1  0  0  0  0
 14 15  1  0  0  0  0
 14 19  1  0  0  0  0
 15 16  1  0  0  0  0
 16 17  1  0  0  0  0
 17 18  1  0  0  0  0
 18 19  1  0  0  0  0
 18 20  1  0  0  0  0
 20 21  1  0  0  0  0
 21 22  4  0  0  0  0
 21 26  4  0  0  0  0
 22 23  4  0  0  0  0
 23 24  4  0  0  0  0
 24 25  4  0  0  0  0
 25 26  4  0  0  0  0
 27 28  4  0  0  0  0
 28 29  4  0  0  0  0
M  END
>  <Name_Molregno>
367530

>  <Dopamine transporter>
7.49

>  <Norepinephrine transporter>
7.41

>  <Serotonin transporter>
7.38

$$$$
367531
  Marvin  02231216192D 0   1.00000     0.00000     0

 30 32  0  0  1  0  0  0  0  0999 V2000
    0.9926    2.7044    0.0000 F   0  0  0  0  0  0  0  0  0
    1.7071    2.2919    0.0000 C   0  0  0  0  0  0  0  0  0
    2.4216    2.7044    0.0000 C   0  0  0  0  0  0  0  0  0
    3.1361    2.2919    0.0000 C   0  0  0  0  0  0  0  0  0
    3.1361    1.4669    0.0000 C   0  0  0  0  0  0  0  0  0
    2.4216    1.0544    0.0000 C   0  0  0  0  0  0  0  0  0
    1.7071    1.4669    0.0000 C   0  0  0  0  0  0  0  0  0
    3.8505    1.0544    0.0000 C   0  0  0  0  0  0  0  0  0
    3.8505    0.2294    0.0000 C   0  0  0  0  0  0  0  0  0
    4.5650   -0.1831    0.0000 C   0  0  0  0  0  0  0  0  0
    4.5650   -1.0081    0.0000 C   0  0  0  0  0  0  0  0  0
    3.8505   -1.4206    0.0000 N   0  0  0  0  0  0  0  0  0
    3.1361   -1.0081    0.0000 C   0  0  0  0  0  0  0  0  0
    3.1361   -0.1831    0.0000 C   0  0  0  0  0  0  0  0  0
    5.2795   -1.4206    0.0000 C   0  0  0  0  0  0  0  0  0
    5.9939   -1.0081    0.0000 C   0  0  0  0  0  0  0  0  0
    6.7084   -1.4206    0.0000 C   0  0  0  0  0  0  0  0  0
    7.4229   -1.0081    0.0000 N   0  0  0  0  0  0  0  0  0
    8.1374   -1.4206    0.0000 C   0  0  0  0  0  0  0  0  0
    8.1374   -2.2456    0.0000 O   0  0  0  0  0  0  0  0  0
    8.8518   -1.0081    0.0000 N   0  0  0  0  0  0  0  0  0
    9.5663   -1.4206    0.0000 C   0  0  0  0  0  0  0  0  0
   10.2808   -1.0081    0.0000 C   0  0  0  0  0  0  0  0  0
   10.9952   -1.4206    0.0000 C   0  0  0  0  0  0  0  0  0
   10.9952   -2.2456    0.0000 C   0  0  0  0  0  0  0  0  0
   10.2808   -2.6581    0.0000 C   0  0  0  0  0  0  0  0  0
    9.5663   -2.2456    0.0000 C   0  0  0  0  0  0  0  0  0
   11.7097   -1.0081    0.0000 C   0  0  0  0  0  0  0  0  0
   12.4242   -1.4206    0.0000 O   0  0  0  0  0  0  0  0  0
   11.7097   -0.1831    0.0000 C   0  0  0  0  0  0  0  0  0
  1  2  1  0  0  0  0
  2  3  4  0  0  0  0
  2  7  4  0  0  0  0
  3  4  4  0  0  0  0
  4  5  4  0  0  0  0
  5  6  4  0  0  0  0
  5  8  1  0  0  0  0
  6  7  4  0  0  0  0
  8  9  1  0  0  0  0
  9 10  1  0  0  0  0
  9 14  1  0  0  0  0
 10 11  1  0  0  0  0
 11 12  1  0  0  0  0
 11 15  1  0  0  0  0
 12 13  1  0  0  0  0
 13 14  1  0  0  0  0
 15 16  1  0  0  0  0
 16 17  1  0  0  0  0
 17 18  1  0  0  0  0
 18 19  1  0  0  0  0
 19 20  2  0  0  0  0
 19 21  1  0  0  0  0
 21 22  1  0  0  0  0
 22 23  4  0  0  0  0
 22 27  4  0  0  0  0
 23 24  4  0  0  0  0
 24 25  4  0  0  0  0
 24 28  1  0  0  0  0
 25 26  4  0  0  0  0
 26 27  4  0  0  0  0
 28 29  2  0  0  0  0
 28 30  1  0  0  0  0
M  END
>  <Name_Molregno>
367531

>  <Dopamine transporter>
6.66

>  <Norepinephrine transporter>
6.63

>  <Serotonin transporter>
7.74

$$$$
367536
  Marvin  02231216192D 0   1.00000     0.00000     0

 33 35  0  0  1  0  0  0  0  0999 V2000
   -0.0264   -1.9671    0.0000 F   0  0  0  0  0  0  0  0  0
    0.6880   -1.5546    0.0000 C   0  0  0  0  0  0  0  0  0
    0.6880   -0.7296    0.0000 C   0  0  0  0  0  0  0  0  0
    1.4025   -0.3171    0.0000 C   0  0  0  0  0  0  0  0  0
    2.1170   -0.7296    0.0000 C   0  0  0  0  0  0  0  0  0
    2.1170   -1.5546    0.0000 C   0  0  0  0  0  0  0  0  0
    1.4025   -1.9671    0.0000 C   0  0  0  0  0  0  0  0  0
    2.8314   -0.3171    0.0000 C   0  0  0  0  0  0  0  0  0
    3.5459   -0.7296    0.0000 C   0  0  0  0  0  0  0  0  0
    4.2604   -0.3171    0.0000 C   0  0  0  0  0  0  0  0  0
    4.9748   -0.7296    0.0000 C   0  0  0  0  0  0  0  0  0
    4.9748   -1.5546    0.0000 N   0  0  0  0  0  0  0  0  0
    4.2604   -1.9671    0.0000 C   0  0  0  0  0  0  0  0  0
    3.5459   -1.5546    0.0000 C   0  0  0  0  0  0  0  0  0
    5.6893   -0.3171    0.0000 C   0  0  0  0  0  0  0  0  0
    6.4038   -0.7296    0.0000 C   0  0  0  0  0  0  0  0  0
    7.1183   -0.3171    0.0000 C   0  0  0  0  0  0  0  0  0
    7.8327   -0.7296    0.0000 N   0  0  0  0  0  0  0  0  0
    8.5472   -0.3171    0.0000 C   0  0  0  0  0  0  0  0  0
    8.5472    0.5079    0.0000 O   0  0  0  0  0  0  0  0  0
    9.2617   -0.7296    0.0000 N   0  0  0  0  0  0  0  0  0
    9.9761   -0.3171    0.0000 C   0  0  0  0  0  0  0  0  0
    9.9761    0.5079    0.0000 C   0  0  0  0  0  0  0  0  0
   10.6906    0.9204    0.0000 C   0  0  0  0  0  0  0  0  0
   11.4051    0.5079    0.0000 C   0  0  0  0  0  0  0  0  0
   11.4051   -0.3171    0.0000 C   0  0  0  0  0  0  0  0  0
   10.6906   -0.7296    0.0000 C   0  0  0  0  0  0  0  0  0
   12.1196   -0.7296    0.0000 C   0  0  0  0  0  0  0  0  0
   12.8340   -0.3171    0.0000 O   0  0  0  0  0  0  0  0  0
   12.1196   -1.5546    0.0000 C   0  0  0  0  0  0  0  0  0
   10.6906    1.7454    0.0000 C   0  0  0  0  0  0  0  0  0
   11.4051    2.1579    0.0000 O   0  0  0  0  0  0  0  0  0
    9.9761    2.1579    0.0000 C   0  0  0  0  0  0  0  0  0
  1  2  1  0  0  0  0
  2  3  4  0  0  0  0
  2  7  4  0  0  0  0
  3  4  4  0  0  0  0
  4  5  4  0  0  0  0
  5  6  4  0  0  0  0
  5  8  1  0  0  0  0
  6  7  4  0  0  0  0
  8  9  1  0  0  0  0
  9 10  1  0  0  0  0
  9 14  1  0  0  0  0
 10 11  1  0  0  0  0
 11 12  1  0  0  0  0
 11 15  1  0  0  0  0
 12 13  1  0  0  0  0
 13 14  1  0  0  0  0
 15 16  1  0  0  0  0
 16 17  1  0  0  0  0
 17 18  1  0  0  0  0
 18 19  1  0  0  0  0
 19 20  2  0  0  0  0
 19 21  1  0  0  0  0
 21 22  1  0  0  0  0
 22 23  4  0  0  0  0
 22 27  4  0  0  0  0
 23 24  4  0  0  0  0
 24 25  4  0  0  0  0
 24 31  1  0  0  0  0
 25 26  4  0  0  0  0
 26 27  4  0  0  0  0
 26 28  1  0  0  0  0
 28 29  2  0  0  0  0
 28 30  1  0  0  0  0
 31 32  2  0  0  0  0
 31 33  1  0  0  0  0
M  END
>  <Name_Molregno>
367536

>  <Dopamine transporter>
6.92

>  <Norepinephrine transporter>
7.02

>  <Serotonin transporter>
8.46

$$$$
367537
  Marvin  02231216192D 0   1.00000     0.00000     0

 31 33  0  0  1  0  0  0  0  0999 V2000
    0.9382    1.9371    0.0000 F   0  0  0  0  0  0  0  0  0
    1.6527    1.5246    0.0000 C   0  0  0  0  0  0  0  0  0
    2.3672    1.9371    0.0000 C   0  0  0  0  0  0  0  0  0
    3.0816    1.5246    0.0000 C   0  0  0  0  0  0  0  0  0
    3.0816    0.6996    0.0000 C   0  0  0  0  0  0  0  0  0
    2.3672    0.2871    0.0000 C   0  0  0  0  0  0  0  0  0
    1.6527    0.6996    0.0000 C   0  0  0  0  0  0  0  0  0
    3.7961    0.2871    0.0000 C   0  0  0  0  0  0  0  0  0
    3.7961   -0.5379    0.0000 C   0  0  0  0  0  0  0  0  0
    4.5106   -0.9504    0.0000 C   0  0  0  0  0  0  0  0  0
    4.5106   -1.7754    0.0000 C   0  0  0  0  0  0  0  0  0
    3.7961   -2.1879    0.0000 N   0  0  0  0  0  0  0  0  0
    3.0816   -1.7754    0.0000 C   0  0  0  0  0  0  0  0  0
    3.0816   -0.9504    0.0000 C   0  0  0  0  0  0  0  0  0
    3.7961   -3.0129    0.0000 C   0  0  0  0  0  0  0  0  0
    5.2251   -2.1879    0.0000 C   0  0  0  0  0  0  0  0  0
    5.9395   -1.7754    0.0000 C   0  0  0  0  0  0  0  0  0
    6.6540   -2.1879    0.0000 C   0  0  0  0  0  0  0  0  0
    7.3685   -1.7754    0.0000 N   0  0  0  0  0  0  0  0  0
    8.0829   -2.1879    0.0000 C   0  0  0  0  0  0  0  0  0
    8.0829   -3.0129    0.0000 O   0  0  0  0  0  0  0  0  0
    8.7974   -1.7754    0.0000 N   0  0  0  0  0  0  0  0  0
    9.5119   -2.1879    0.0000 C   0  0  0  0  0  0  0  0  0
   10.2264   -1.7754    0.0000 C   0  0  0  0  0  0  0  0  0
   10.9408   -2.1879    0.0000 C   0  0  0  0  0  0  0  0  0
   10.9408   -3.0129    0.0000 C   0  0  0  0  0  0  0  0  0
   10.2264   -3.4254    0.0000 C   0  0  0  0  0  0  0  0  0
    9.5119   -3.0129    0.0000 C   0  0  0  0  0  0  0  0  0
   11.6553   -1.7754    0.0000 C   0  0  0  0  0  0  0  0  0
   12.3698   -2.1879    0.0000 O   0  0  0  0  0  0  0  0  0
   11.6553   -0.9504    0.0000 C   0  0  0  0  0  0  0  0  0
  1  2  1  0  0  0  0
  2  3  4  0  0  0  0
  2  7  4  0  0  0  0
  3  4  4  0  0  0  0
  4  5  4  0  0  0  0
  5  6  4  0  0  0  0
  5  8  1  0  0  0  0
  6  7  4  0  0  0  0
  8  9  1  0  0  0  0
  9 10  1  0  0  0  0
  9 14  1  0  0  0  0
 10 11  1  0  0  0  0
 11 12  1  0  0  0  0
 11 16  1  0  0  0  0
 12 13  1  0  0  0  0
 12 15  1  0  0  0  0
 13 14  1  0  0  0  0
 16 17  1  0  0  0  0
 17 18  1  0  0  0  0
 18 19  1  0  0  0  0
 19 20  1  0  0  0  0
 20 21  2  0  0  0  0
 20 22  1  0  0  0  0
 22 23  1  0  0  0  0
 23 24  4  0  0  0  0
 23 28  4  0  0  0  0
 24 25  4  0  0  0  0
 25 26  4  0  0  0  0
 25 29  1  0  0  0  0
 26 27  4  0  0  0  0
 27 28  4  0  0  0  0
 29 30  2  0  0  0  0
 29 31  1  0  0  0  0
M  END
>  <Name_Molregno>
367537

>  <Dopamine transporter>
7.02

>  <Norepinephrine transporter>
6.59

>  <Serotonin transporter>
6.24

$$$$
367542
  Marvin  02231216192D 0   1.00000     0.00000     0

 33 35  0  0  1  0  0  0  0  0999 V2000
    0.7312    4.3000    0.0000 F   0  0  0  0  0  0  0  0  0
    1.4456    3.8875    0.0000 C   0  0  0  0  0  0  0  0  0
    2.1601    4.3000    0.0000 C   0  0  0  0  0  0  0  0  0
    2.8746    3.8875    0.0000 C   0  0  0  0  0  0  0  0  0
    2.8746    3.0625    0.0000 C   0  0  0  0  0  0  0  0  0
    2.1601    2.6500    0.0000 C   0  0  0  0  0  0  0  0  0
    1.4456    3.0625    0.0000 C   0  0  0  0  0  0  0  0  0
    3.5890    2.6500    0.0000 C   0  0  0  0  0  0  0  0  0
    3.5890    1.8250    0.0000 C   0  0  0  0  0  0  0  0  0
    4.3035    1.4125    0.0000 C   0  0  0  0  0  0  0  0  0
    4.3035    0.5875    0.0000 C   0  0  0  0  0  0  0  0  0
    3.5890    0.1750    0.0000 N   0  0  0  0  0  0  0  0  0
    2.8746    0.5875    0.0000 C   0  0  0  0  0  0  0  0  0
    2.8746    1.4125    0.0000 C   0  0  0  0  0  0  0  0  0
    3.5890   -0.6500    0.0000 C   0  0  0  0  0  0  0  0  0
    4.3035   -1.0625    0.0000 C   0  0  0  0  0  0  0  0  0
    4.3035   -1.8875    0.0000 C   0  0  0  0  0  0  0  0  0
    5.0180    0.1750    0.0000 C   0  0  0  0  0  0  0  0  0
    5.7325    0.5875    0.0000 C   0  0  0  0  0  0  0  0  0
    6.4469    0.1750    0.0000 C   0  0  0  0  0  0  0  0  0
    7.1614    0.5875    0.0000 N   0  0  0  0  0  0  0  0  0
    7.8759    0.1750    0.0000 C   0  0  0  0  0  0  0  0  0
    7.8759   -0.6500    0.0000 O   0  0  0  0  0  0  0  0  0
    8.5903    0.5875    0.0000 N   0  0  0  0  0  0  0  0  0
    9.3048    0.1750    0.0000 C   0  0  0  0  0  0  0  0  0
   10.0193    0.5875    0.0000 C   0  0  0  0  0  0  0  0  0
   10.7338    0.1750    0.0000 C   0  0  0  0  0  0  0  0  0
   10.7338   -0.6500    0.0000 C   0  0  0  0  0  0  0  0  0
   10.0193   -1.0625    0.0000 C   0  0  0  0  0  0  0  0  0
    9.3048   -0.6500    0.0000 C   0  0  0  0  0  0  0  0  0
   11.4482    0.5875    0.0000 C   0  0  0  0  0  0  0  0  0
   12.1627    0.1750    0.0000 O   0  0  0  0  0  0  0  0  0
   11.4482    1.4125    0.0000 C   0  0  0  0  0  0  0  0  0
  1  2  1  0  0  0  0
  2  3  4  0  0  0  0
  2  7  4  0  0  0  0
  3  4  4  0  0  0  0
  4  5  4  0  0  0  0
  5  6  4  0  0  0  0
  5  8  1  0  0  0  0
  6  7  4  0  0  0  0
  8  9  1  0  0  0  0
  9 10  1  0  0  0  0
  9 14  1  0  0  0  0
 10 11  1  0  0  0  0
 11 12  1  0  0  0  0
 11 18  1  0  0  0  0
 12 13  1  0  0  0  0
 12 15  1  0  0  0  0
 13 14  1  0  0  0  0
 15 16  1  0  0  0  0
 16 17  1  0  0  0  0
 18 19  1  0  0  0  0
 19 20  1  0  0  0  0
 20 21  1  0  0  0  0
 21 22  1  0  0  0  0
 22 23  2  0  0  0  0
 22 24  1  0  0  0  0
 24 25  1  0  0  0  0
 25 26  4  0  0  0  0
 25 30  4  0  0  0  0
 26 27  4  0  0  0  0
 27 28  4  0  0  0  0
 27 31  1  0  0  0  0
 28 29  4  0  0  0  0
 29 30  4  0  0  0  0
 31 32  2  0  0  0  0
 31 33  1  0  0  0  0
M  END
>  <Name_Molregno>
367542

>  <Dopamine transporter>
6.12

>  <Norepinephrine transporter>
5.38

>  <Serotonin transporter>
6.53

$$$$
367543
  Marvin  02231216192D 0   1.00000     0.00000     0

 34 37  0  0  1  0  0  0  0  0999 V2000
    0.8620    3.8223    0.0000 F   0  0  0  0  0  0  0  0  0
    1.5765    3.4098    0.0000 C   0  0  0  0  0  0  0  0  0
    2.2909    3.8223    0.0000 C   0  0  0  0  0  0  0  0  0
    3.0054    3.4098    0.0000 C   0  0  0  0  0  0  0  0  0
    3.0054    2.5848    0.0000 C   0  0  0  0  0  0  0  0  0
    2.2909    2.1723    0.0000 C   0  0  0  0  0  0  0  0  0
    1.5765    2.5848    0.0000 C   0  0  0  0  0  0  0  0  0
    3.7199    2.1723    0.0000 C   0  0  0  0  0  0  0  0  0
    3.7199    1.3473    0.0000 C   0  0  0  0  0  0  0  0  0
    4.4344    0.9348    0.0000 C   0  0  0  0  0  0  0  0  0
    4.4344    0.1098    0.0000 C   0  0  0  0  0  0  0  0  0
    3.7199   -0.3027    0.0000 N   0  0  0  0  0  0  0  0  0
    3.0054    0.1098    0.0000 C   0  0  0  0  0  0  0  0  0
    3.0054    0.9348    0.0000 C   0  0  0  0  0  0  0  0  0
    3.7199   -1.1277    0.0000 C   0  0  0  0  0  0  0  0  0
    3.0054   -1.5402    0.0000 C   0  0  0  0  0  0  0  0  0
    2.5929   -2.2547    0.0000 C   0  0  0  0  0  0  0  0  0
    2.1804   -1.5402    0.0000 C   0  0  0  0  0  0  0  0  0
    5.1488   -0.3027    0.0000 C   0  0  0  0  0  0  0  0  0
    5.8633    0.1098    0.0000 C   0  0  0  0  0  0  0  0  0
    6.5778   -0.3027    0.0000 C   0  0  0  0  0  0  0  0  0
    7.2922    0.1098    0.0000 N   0  0  0  0  0  0  0  0  0
    8.0067   -0.3027    0.0000 C   0  0  0  0  0  0  0  0  0
    8.0067   -1.1277    0.0000 O   0  0  0  0  0  0  0  0  0
    8.7212    0.1098    0.0000 N   0  0  0  0  0  0  0  0  0
    9.4357   -0.3027    0.0000 C   0  0  0  0  0  0  0  0  0
   10.1501    0.1098    0.0000 C   0  0  0  0  0  0  0  0  0
   10.8646   -0.3027    0.0000 C   0  0  0  0  0  0  0  0  0
   10.8646   -1.1277    0.0000 C   0  0  0  0  0  0  0  0  0
   10.1501   -1.5402    0.0000 C   0  0  0  0  0  0  0  0  0
    9.4357   -1.1277    0.0000 C   0  0  0  0  0  0  0  0  0
   11.5791    0.1098    0.0000 C   0  0  0  0  0  0  0  0  0
   12.2935   -0.3027    0.0000 O   0  0  0  0  0  0  0  0  0
   11.5791    0.9348    0.0000 C   0  0  0  0  0  0  0  0  0
  1  2  1  0  0  0  0
  2  3  4  0  0  0  0
  2  7  4  0  0  0  0
  3  4  4  0  0  0  0
  4  5  4  0  0  0  0
  5  6  4  0  0  0  0
  5  8  1  0  0  0  0
  6  7  4  0  0  0  0
  8  9  1  0  0  0  0
  9 10  1  0  0  0  0
  9 14  1  0  0  0  0
 10 11  1  0  0  0  0
 11 12  1  0  0  0  0
 11 19  1  0  0  0  0
 12 13  1  0  0  0  0
 12 15  1  0  0  0  0
 13 14  1  0  0  0  0
 15 16  1  0  0  0  0
 16 17  1  0  0  0  0
 16 18  1  0  0  0  0
 17 18  1  0  0  0  0
 19 20  1  0  0  0  0
 20 21  1  0  0  0  0
 21 22  1  0  0  0  0
 22 23  1  0  0  0  0
 23 24  2  0  0  0  0
 23 25  1  0  0  0  0
 25 26  1  0  0  0  0
 26 27  4  0  0  0  0
 26 31  4  0  0  0  0
 27 28  4  0  0  0  0
 28 29  4  0  0  0  0
 28 32  1  0  0  0  0
 29 30  4  0  0  0  0
 30 31  4  0  0  0  0
 32 33  2  0  0  0  0
 32 34  1  0  0  0  0
M  END
>  <Name_Molregno>
367543

>  <Dopamine transporter>
6.6

>  <Norepinephrine transporter>
5.46

>  <Serotonin transporter>
6.93

$$$$
367553
  Marvin  02231216192D 0   1.00000     0.00000     0

 33 35  0  0  1  0  0  0  0  0999 V2000
    0.7312    4.3000    0.0000 F   0  0  0  0  0  0  0  0  0
    1.4456    3.8875    0.0000 C   0  0  0  0  0  0  0  0  0
    2.1601    4.3000    0.0000 C   0  0  0  0  0  0  0  0  0
    2.8746    3.8875    0.0000 C   0  0  0  0  0  0  0  0  0
    2.8746    3.0625    0.0000 C   0  0  0  0  0  0  0  0  0
    2.1601    2.6500    0.0000 C   0  0  0  0  0  0  0  0  0
    1.4456    3.0625    0.0000 C   0  0  0  0  0  0  0  0  0
    3.5890    2.6500    0.0000 C   0  0  0  0  0  0  0  0  0
    3.5890    1.8250    0.0000 C   0  0  0  0  0  0  0  0  0
    4.3035    1.4125    0.0000 C   0  0  0  0  0  0  0  0  0
    4.3035    0.5875    0.0000 C   0  0  0  0  0  0  0  0  0
    3.5890    0.1750    0.0000 N   0  0  0  0  0  0  0  0  0
    2.8746    0.5875    0.0000 C   0  0  0  0  0  0  0  0  0
    2.8746    1.4125    0.0000 C   0  0  0  0  0  0  0  0  0
    3.5890   -0.6500    0.0000 C   0  0  0  0  0  0  0  0  0
    4.3035   -1.0625    0.0000 C   0  0  0  0  0  0  0  0  0
    4.3035   -1.8875    0.0000 C   0  0  0  0  0  0  0  0  0
    5.0180    0.1750    0.0000 C   0  0  0  0  0  0  0  0  0
    5.7325    0.5875    0.0000 C   0  0  0  0  0  0  0  0  0
    6.4469    0.1750    0.0000 C   0  0  0  0  0  0  0  0  0
    7.1614    0.5875    0.0000 N   0  0  0  0  0  0  0  0  0
    7.8759    0.1750    0.0000 C   0  0  0  0  0  0  0  0  0
    7.8759   -0.6500    0.0000 O   0  0  0  0  0  0  0  0  0
    8.5903    0.5875    0.0000 N   0  0  0  0  0  0  0  0  0
    9.3048    0.1750    0.0000 C   0  0  0  0  0  0  0  0  0
   10.0193    0.5875    0.0000 C   0  0  0  0  0  0  0  0  0
   10.7338    0.1750    0.0000 C   0  0  0  0  0  0  0  0  0
   10.7338   -0.6500    0.0000 C   0  0  0  0  0  0  0  0  0
   10.0193   -1.0625    0.0000 C   0  0  0  0  0  0  0  0  0
    9.3048   -0.6500    0.0000 C   0  0  0  0  0  0  0  0  0
   11.4482    0.5875    0.0000 C   0  0  0  0  0  0  0  0  0
   12.1627    0.1750    0.0000 O   0  0  0  0  0  0  0  0  0
   11.4482    1.4125    0.0000 C   0  0  0  0  0  0  0  0  0
  1  2  1  0  0  0  0
  2  3  4  0  0  0  0
  2  7  4  0  0  0  0
  3  4  4  0  0  0  0
  4  5  4  0  0  0  0
  5  6  4  0  0  0  0
  5  8  1  0  0  0  0
  6  7  4  0  0  0  0
  8  9  1  0  0  0  0
  9 10  1  0  0  0  0
  9 14  1  0  0  0  0
 10 11  1  0  0  0  0
 11 12  1  0  0  0  0
 11 18  1  0  0  0  0
 12 13  1  0  0  0  0
 12 15  1  0  0  0  0
 13 14  1  0  0  0  0
 15 16  1  0  0  0  0
 16 17  2  0  0  0  0
 18 19  1  0  0  0  0
 19 20  1  0  0  0  0
 20 21  1  0  0  0  0
 21 22  1  0  0  0  0
 22 23  2  0  0  0  0
 22 24  1  0  0  0  0
 24 25  1  0  0  0  0
 25 26  4  0  0  0  0
 25 30  4  0  0  0  0
 26 27  4  0  0  0  0
 27 28  4  0  0  0  0
 27 31  1  0  0  0  0
 28 29  4  0  0  0  0
 29 30  4  0  0  0  0
 31 32  2  0  0  0  0
 31 33  1  0  0  0  0
M  END
>  <Name_Molregno>
367553

>  <Dopamine transporter>
6.07

>  <Norepinephrine transporter>
5.91

>  <Serotonin transporter>
6.66

$$$$
367554
  Marvin  02231216192D 0   1.00000     0.00000     0

 33 35  0  0  1  0  0  0  0  0999 V2000
    0.7312    4.3000    0.0000 F   0  0  0  0  0  0  0  0  0
    1.4456    3.8875    0.0000 C   0  0  0  0  0  0  0  0  0
    2.1601    4.3000    0.0000 C   0  0  0  0  0  0  0  0  0
    2.8746    3.8875    0.0000 C   0  0  0  0  0  0  0  0  0
    2.8746    3.0625    0.0000 C   0  0  0  0  0  0  0  0  0
    2.1601    2.6500    0.0000 C   0  0  0  0  0  0  0  0  0
    1.4456    3.0625    0.0000 C   0  0  0  0  0  0  0  0  0
    3.5890    2.6500    0.0000 C   0  0  0  0  0  0  0  0  0
    3.5890    1.8250    0.0000 C   0  0  0  0  0  0  0  0  0
    4.3035    1.4125    0.0000 C   0  0  0  0  0  0  0  0  0
    4.3035    0.5875    0.0000 C   0  0  0  0  0  0  0  0  0
    3.5890    0.1750    0.0000 N   0  0  0  0  0  0  0  0  0
    2.8746    0.5875    0.0000 C   0  0  0  0  0  0  0  0  0
    2.8746    1.4125    0.0000 C   0  0  0  0  0  0  0  0  0
    3.5890   -0.6500    0.0000 C   0  0  0  0  0  0  0  0  0
    4.3035   -1.0625    0.0000 C   0  0  0  0  0  0  0  0  0
    4.3035   -1.8875    0.0000 O   0  0  0  0  0  0  0  0  0
    5.0180    0.1750    0.0000 C   0  0  0  0  0  0  0  0  0
    5.7325    0.5875    0.0000 C   0  0  0  0  0  0  0  0  0
    6.4469    0.1750    0.0000 C   0  0  0  0  0  0  0  0  0
    7.1614    0.5875    0.0000 N   0  0  0  0  0  0  0  0  0
    7.8759    0.1750    0.0000 C   0  0  0  0  0  0  0  0  0
    7.8759   -0.6500    0.0000 O   0  0  0  0  0  0  0  0  0
    8.5903    0.5875    0.0000 N   0  0  0  0  0  0  0  0  0
    9.3048    0.1750    0.0000 C   0  0  0  0  0  0  0  0  0
   10.0193    0.5875    0.0000 C   0  0  0  0  0  0  0  0  0
   10.7338    0.1750    0.0000 C   0  0  0  0  0  0  0  0  0
   10.7338   -0.6500    0.0000 C   0  0  0  0  0  0  0  0  0
   10.0193   -1.0625    0.0000 C   0  0  0  0  0  0  0  0  0
    9.3048   -0.6500    0.0000 C   0  0  0  0  0  0  0  0  0
   11.4482    0.5875    0.0000 C   0  0  0  0  0  0  0  0  0
   12.1627    0.1750    0.0000 O   0  0  0  0  0  0  0  0  0
   11.4482    1.4125    0.0000 C   0  0  0  0  0  0  0  0  0
  1  2  1  0  0  0  0
  2  3  4  0  0  0  0
  2  7  4  0  0  0  0
  3  4  4  0  0  0  0
  4  5  4  0  0  0  0
  5  6  4  0  0  0  0
  5  8  1  0  0  0  0
  6  7  4  0  0  0  0
  8  9  1  0  0  0  0
  9 10  1  0  0  0  0
  9 14  1  0  0  0  0
 10 11  1  0  0  0  0
 11 12  1  0  0  0  0
 11 18  1  0  0  0  0
 12 13  1  0  0  0  0
 12 15  1  0  0  0  0
 13 14  1  0  0  0  0
 15 16  1  0  0  0  0
 16 17  1  0  0  0  0
 18 19  1  0  0  0  0
 19 20  1  0  0  0  0
 20 21  1  0  0  0  0
 21 22  1  0  0  0  0
 22 23  2  0  0  0  0
 22 24  1  0  0  0  0
 24 25  1  0  0  0  0
 25 26  4  0  0  0  0
 25 30  4  0  0  0  0
 26 27  4  0  0  0  0
 27 28  4  0  0  0  0
 27 31  1  0  0  0  0
 28 29  4  0  0  0  0
 29 30  4  0  0  0  0
 31 32  2  0  0  0  0
 31 33  1  0  0  0  0
M  END
>  <Name_Molregno>
367554

>  <Dopamine transporter>
5.65

>  <Norepinephrine transporter>
5.74

>  <Serotonin transporter>
7.3

$$$$
367559
  Marvin  02231216192D 0   1.00000     0.00000     0

 36 38  0  0  1  0  0  0  0  0999 V2000
   -0.4444   -0.5418    0.0000 F   0  0  0  0  0  0  0  0  0
    0.2700   -0.1293    0.0000 C   0  0  0  0  0  0  0  0  0
    0.2700    0.6957    0.0000 C   0  0  0  0  0  0  0  0  0
    0.9845    1.1082    0.0000 C   0  0  0  0  0  0  0  0  0
    1.6990    0.6957    0.0000 C   0  0  0  0  0  0  0  0  0
    1.6990   -0.1293    0.0000 C   0  0  0  0  0  0  0  0  0
    0.9845   -0.5418    0.0000 C   0  0  0  0  0  0  0  0  0
    2.4135    1.1082    0.0000 C   0  0  0  0  0  0  0  0  0
    3.1279    0.6957    0.0000 C   0  0  0  0  0  0  0  0  0
    3.8424    1.1082    0.0000 C   0  0  0  0  0  0  0  0  0
    4.5569    0.6957    0.0000 C   0  0  0  0  0  0  0  0  0
    4.5569   -0.1293    0.0000 N   0  0  0  0  0  0  0  0  0
    3.8424   -0.5418    0.0000 C   0  0  0  0  0  0  0  0  0
    3.1279   -0.1293    0.0000 C   0  0  0  0  0  0  0  0  0
    5.2713   -0.5418    0.0000 C   0  0  0  0  0  0  0  0  0
    5.9858   -0.1293    0.0000 C   0  0  0  0  0  0  0  0  0
    6.7003   -0.5418    0.0000 C   0  0  0  0  0  0  0  0  0
    5.2713    1.1082    0.0000 C   0  0  0  0  0  0  0  0  0
    5.9858    0.6957    0.0000 C   0  0  0  0  0  0  0  0  0
    6.7003    1.1082    0.0000 C   0  0  0  0  0  0  0  0  0
    7.4148    0.6957    0.0000 N   0  0  0  0  0  0  0  0  0
    8.1292    1.1082    0.0000 C   0  0  0  0  0  0  0  0  0
    8.1292    1.9332    0.0000 O   0  0  0  0  0  0  0  0  0
    8.8437    0.6957    0.0000 N   0  0  0  0  0  0  0  0  0
    9.5582    1.1082    0.0000 C   0  0  0  0  0  0  0  0  0
    9.5582    1.9332    0.0000 C   0  0  0  0  0  0  0  0  0
   10.2726    2.3457    0.0000 C   0  0  0  0  0  0  0  0  0
   10.9871    1.9332    0.0000 C   0  0  0  0  0  0  0  0  0
   10.9871    1.1082    0.0000 C   0  0  0  0  0  0  0  0  0
   10.2726    0.6957    0.0000 C   0  0  0  0  0  0  0  0  0
   11.7016    0.6957    0.0000 C   0  0  0  0  0  0  0  0  0
   12.4160    1.1082    0.0000 O   0  0  0  0  0  0  0  0  0
   11.7016   -0.1293    0.0000 C   0  0  0  0  0  0  0  0  0
   10.2726    3.1707    0.0000 C   0  0  0  0  0  0  0  0  0
   10.9871    3.5832    0.0000 O   0  0  0  0  0  0  0  0  0
    9.5582    3.5832    0.0000 C   0  0  0  0  0  0  0  0  0
  1  2  1  0  0  0  0
  2  3  4  0  0  0  0
  2  7  4  0  0  0  0
  3  4  4  0  0  0  0
  4  5  4  0  0  0  0
  5  6  4  0  0  0  0
  5  8  1  0  0  0  0
  6  7  4  0  0  0  0
  8  9  1  0  0  0  0
  9 10  1  0  0  0  0
  9 14  1  0  0  0  0
 10 11  1  0  0  0  0
 11 12  1  0  0  0  0
 11 18  1  0  0  0  0
 12 13  1  0  0  0  0
 12 15  1  0  0  0  0
 13 14  1  0  0  0  0
 15 16  1  0  0  0  0
 16 17  1  0  0  0  0
 18 19  1  0  0  0  0
 19 20  1  0  0  0  0
 20 21  1  0  0  0  0
 21 22  1  0  0  0  0
 22 23  2  0  0  0  0
 22 24  1  0  0  0  0
 24 25  1  0  0  0  0
 25 26  4  0  0  0  0
 25 30  4  0  0  0  0
 26 27  4  0  0  0  0
 27 28  4  0  0  0  0
 27 34  1  0  0  0  0
 28 29  4  0  0  0  0
 29 30  4  0  0  0  0
 29 31  1  0  0  0  0
 31 32  2  0  0  0  0
 31 33  1  0  0  0  0
 34 35  2  0  0  0  0
 34 36  1  0  0  0  0
M  END
>  <Name_Molregno>
367559

>  <Dopamine transporter>
6.8

>  <Norepinephrine transporter>
5.83

>  <Serotonin transporter>
6.78

$$$$
367560
  Marvin  02231216192D 0   1.00000     0.00000     0

 36 38  0  0  1  0  0  0  0  0999 V2000
   -0.4444   -0.5418    0.0000 F   0  0  0  0  0  0  0  0  0
    0.2700   -0.1293    0.0000 C   0  0  0  0  0  0  0  0  0
    0.2700    0.6957    0.0000 C   0  0  0  0  0  0  0  0  0
    0.9845    1.1082    0.0000 C   0  0  0  0  0  0  0  0  0
    1.6990    0.6957    0.0000 C   0  0  0  0  0  0  0  0  0
    1.6990   -0.1293    0.0000 C   0  0  0  0  0  0  0  0  0
    0.9845   -0.5418    0.0000 C   0  0  0  0  0  0  0  0  0
    2.4135    1.1082    0.0000 C   0  0  0  0  0  0  0  0  0
    3.1279    0.6957    0.0000 C   0  0  0  0  0  0  0  0  0
    3.8424    1.1082    0.0000 C   0  0  0  0  0  0  0  0  0
    4.5569    0.6957    0.0000 C   0  0  0  0  0  0  0  0  0
    4.5569   -0.1293    0.0000 N   0  0  0  0  0  0  0  0  0
    3.8424   -0.5418    0.0000 C   0  0  0  0  0  0  0  0  0
    3.1279   -0.1293    0.0000 C   0  0  0  0  0  0  0  0  0
    5.2713   -0.5418    0.0000 C   0  0  0  0  0  0  0  0  0
    5.9858   -0.1293    0.0000 C   0  0  0  0  0  0  0  0  0
    6.7003   -0.5418    0.0000 C   0  0  0  0  0  0  0  0  0
    5.2713    1.1082    0.0000 C   0  0  0  0  0  0  0  0  0
    5.9858    0.6957    0.0000 C   0  0  0  0  0  0  0  0  0
    6.7003    1.1082    0.0000 C   0  0  0  0  0  0  0  0  0
    7.4148    0.6957    0.0000 N   0  0  0  0  0  0  0  0  0
    8.1292    1.1082    0.0000 C   0  0  0  0  0  0  0  0  0
    8.1292    1.9332    0.0000 O   0  0  0  0  0  0  0  0  0
    8.8437    0.6957    0.0000 N   0  0  0  0  0  0  0  0  0
    9.5582    1.1082    0.0000 C   0  0  0  0  0  0  0  0  0
    9.5582    1.9332    0.0000 C   0  0  0  0  0  0  0  0  0
   10.2726    2.3457    0.0000 C   0  0  0  0  0  0  0  0  0
   10.9871    1.9332    0.0000 C   0  0  0  0  0  0  0  0  0
   10.9871    1.1082    0.0000 C   0  0  0  0  0  0  0  0  0
   10.2726    0.6957    0.0000 C   0  0  0  0  0  0  0  0  0
   11.7016    0.6957    0.0000 C   0  0  0  0  0  0  0  0  0
   12.4160    1.1082    0.0000 O   0  0  0  0  0  0  0  0  0
   11.7016   -0.1293    0.0000 C   0  0  0  0  0  0  0  0  0
   10.2726    3.1707    0.0000 C   0  0  0  0  0  0  0  0  0
   10.9871    3.5832    0.0000 O   0  0  0  0  0  0  0  0  0
    9.5582    3.5832    0.0000 C   0  0  0  0  0  0  0  0  0
  1  2  1  0  0  0  0
  2  3  4  0  0  0  0
  2  7  4  0  0  0  0
  3  4  4  0  0  0  0
  4  5  4  0  0  0  0
  5  6  4  0  0  0  0
  5  8  1  0  0  0  0
  6  7  4  0  0  0  0
  8  9  1  0  0  0  0
  9 10  1  0  0  0  0
  9 14  1  0  0  0  0
 10 11  1  0  0  0  0
 11 12  1  0  0  0  0
 11 18  1  0  0  0  0
 12 13  1  0  0  0  0
 12 15  1  0  0  0  0
 13 14  1  0  0  0  0
 15 16  1  0  0  0  0
 16 17  2  0  0  0  0
 18 19  1  0  0  0  0
 19 20  1  0  0  0  0
 20 21  1  0  0  0  0
 21 22  1  0  0  0  0
 22 23  2  0  0  0  0
 22 24  1  0  0  0  0
 24 25  1  0  0  0  0
 25 26  4  0  0  0  0
 25 30  4  0  0  0  0
 26 27  4  0  0  0  0
 27 28  4  0  0  0  0
 27 34  1  0  0  0  0
 28 29  4  0  0  0  0
 29 30  4  0  0  0  0
 29 31  1  0  0  0  0
 31 32  2  0  0  0  0
 31 33  1  0  0  0  0
 34 35  2  0  0  0  0
 34 36  1  0  0  0  0
M  END
>  <Name_Molregno>
367560

>  <Dopamine transporter>
6.53

>  <Norepinephrine transporter>
6.06

>  <Serotonin transporter>
7.16

$$$$
373828
  Marvin  02231216192D 0   1.00000     0.00000     0

 20 22  0  0  1  0  0  0  0  0999 V2000
    5.3954   -2.4329    0.0000 Cl  0  0  0  0  0  0  0  0  0
    4.9836   -1.7180    0.0000 C   0  0  0  0  0  0  0  0  0
    4.1586   -1.7172    0.0000 C   0  0  0  0  0  0  0  0  0
    3.7468   -1.0023    0.0000 C   0  0  0  0  0  0  0  0  0
    4.1600   -0.2882    0.0000 C   0  0  0  0  0  0  0  0  0
    4.9850   -0.2890    0.0000 C   0  0  0  0  0  0  0  0  0
    5.3968   -1.0039    0.0000 C   0  0  0  0  0  0  0  0  0
    3.7482    0.4267    0.0000 C   0  0  0  0  0  0  0  0  0
    3.6100    1.2441    0.0000 C   0  0  0  0  0  0  0  0  0
    2.6812    1.2286    0.0000 C   0  0  0  0  0  0  0  0  0
    2.1206    1.6685    0.0000 N   0  0  0  0  0  0  0  0  0
    2.2603    0.8554    0.0000 C   0  0  0  0  0  0  0  0  0
    1.7404    0.1431    0.0000 C   0  0  0  0  0  0  0  0  0
    2.3607    0.5200    0.0000 C   0  0  0  0  0  0  0  0  0
    3.2320    0.8554    0.0000 C   0  0  0  0  0  0  0  0  0
    2.9518    0.0794    0.0000 C   0  0  0  0  0  0  0  0  0
    2.1397   -0.0659    0.0000 O   0  0  0  0  0  0  0  0  0
    1.8595   -0.8419    0.0000 C   0  0  0  0  0  0  0  0  0
    3.4837   -0.5512    0.0000 O   0  0  0  0  0  0  0  0  0
    1.6980    2.3770    0.0000 C   0  0  0  0  0  0  0  0  0
  1  2  1  0  0  0  0
  2  3  4  0  0  0  0
  2  7  4  0  0  0  0
  3  4  4  0  0  0  0
  4  5  4  0  0  0  0
  5  6  4  0  0  0  0
  5  8  1  0  0  0  0
  6  7  4  0  0  0  0
  8  9  1  0  0  0  0
  8 15  1  0  0  0  0
  9 10  1  0  0  0  0
 10 11  1  0  0  0  0
 10 14  1  0  0  0  0
 11 12  1  0  0  0  0
 11 20  1  0  0  0  0
 12 13  1  0  0  0  0
 12 15  1  0  0  0  0
 13 14  1  0  0  0  0
 15 16  1  0  0  0  0
 16 17  1  0  0  0  0
 16 19  2  0  0  0  0
 17 18  1  0  0  0  0
M  END
>  <Name_Molregno>
373828

>  <Dopamine transporter>
8.57

>  <Norepinephrine transporter>
7.36

>  <Serotonin transporter>
7.44

$$$$
376438
  Marvin  02231216192D 0   1.00000     0.00000     0

 21 23  0  0  1  0  0  0  0  0999 V2000
    2.6777   -0.4541    0.0000 O   0  0  0  0  0  0  0  0  0
    2.6777    0.3709    0.0000 C   0  0  0  0  0  0  0  0  0
    1.9632    0.7834    0.0000 C   0  0  0  0  0  0  0  0  0
    1.2487    0.3709    0.0000 N   0  0  0  0  0  0  0  0  0
    1.3104   -0.4517    0.0000 C   0  0  0  0  0  0  0  0  0
    0.7056   -1.0129    0.0000 C   0  0  0  0  0  0  0  0  0
   -0.1102   -0.8899    0.0000 C   0  0  0  0  0  0  0  0  0
   -0.5227   -0.1755    0.0000 C   0  0  0  0  0  0  0  0  0
   -0.2213    0.5925    0.0000 C   0  0  0  0  0  0  0  0  0
    0.5671    0.8357    0.0000 C   0  0  0  0  0  0  0  0  0
    0.7507    1.6400    0.0000 C   0  0  0  0  0  0  0  0  0
    0.1459    2.2011    0.0000 C   0  0  0  0  0  0  0  0  0
   -0.6425    1.9580    0.0000 C   0  0  0  0  0  0  0  0  0
   -0.8260    1.1537    0.0000 C   0  0  0  0  0  0  0  0  0
    0.8892   -1.8172    0.0000 C   0  0  0  0  0  0  0  0  0
    1.6775   -2.0604    0.0000 C   0  0  0  0  0  0  0  0  0
    2.2823   -1.4992    0.0000 C   0  0  0  0  0  0  0  0  0
    2.0987   -0.6949    0.0000 C   0  0  0  0  0  0  0  0  0
    3.3921    0.7834    0.0000 C   0  0  0  0  0  0  0  0  0
    4.1066    0.3709    0.0000 N   0  0  0  0  0  0  0  0  0
    4.8211    0.7834    0.0000 C   0  0  0  0  0  0  0  0  0
  1  2  1  0  0  0  0
  2  3  1  0  0  0  0
  2 19  1  0  0  0  0
  3  4  1  0  0  0  0
  4  5  1  0  0  0  0
  4 10  1  0  0  0  0
  5  6  4  0  0  0  0
  5 18  4  0  0  0  0
  6  7  1  0  0  0  0
  6 15  4  0  0  0  0
  7  8  1  0  0  0  0
  8  9  1  0  0  0  0
  9 10  4  0  0  0  0
  9 14  4  0  0  0  0
 10 11  4  0  0  0  0
 11 12  4  0  0  0  0
 12 13  4  0  0  0  0
 13 14  4  0  0  0  0
 15 16  4  0  0  0  0
 16 17  4  0  0  0  0
 17 18  4  0  0  0  0
 19 20  1  0  0  0  0
 20 21  1  0  0  0  0
M  END
>  <Name_Molregno>
376438

>  <Norepinephrine transporter>
8.08

$$$$
376439
  Marvin  02231216192D 0   1.00000     0.00000     0

 23 25  0  0  1  0  0  0  0  0999 V2000
    1.4083   -0.8508    0.0000 F   0  0  0  0  0  0  0  0  0
    0.5833   -0.8508    0.0000 C   0  0  0  0  0  0  0  0  0
    0.1708   -1.5653    0.0000 C   0  0  0  0  0  0  0  0  0
   -0.6542   -1.5653    0.0000 C   0  0  0  0  0  0  0  0  0
   -1.0667   -2.2797    0.0000 C   0  0  0  0  0  0  0  0  0
   -1.8917   -2.2797    0.0000 C   0  0  0  0  0  0  0  0  0
   -1.8917   -1.4547    0.0000 O   0  0  0  0  0  0  0  0  0
   -1.8917   -3.1047    0.0000 C   0  0  0  0  0  0  0  0  0
   -1.2243   -3.5897    0.0000 C   0  0  0  0  0  0  0  0  0
   -1.4792   -4.3743    0.0000 C   0  0  0  0  0  0  0  0  0
   -2.3042   -4.3743    0.0000 C   0  0  0  0  0  0  0  0  0
   -2.5591   -3.5897    0.0000 C   0  0  0  0  0  0  0  0  0
   -2.7167   -2.2797    0.0000 C   0  0  0  0  0  0  0  0  0
   -3.1292   -2.9942    0.0000 O   0  0  0  0  0  0  0  0  0
   -3.9542   -2.9942    0.0000 C   0  0  0  0  0  0  0  0  0
   -4.3667   -2.2797    0.0000 C   0  0  0  0  0  0  0  0  0
   -3.9542   -1.5653    0.0000 N   0  0  0  0  0  0  0  0  0
   -3.1292   -1.5653    0.0000 C   0  0  0  0  0  0  0  0  0
   -1.0667   -0.8508    0.0000 C   0  0  0  0  0  0  0  0  0
   -1.8917   -0.8508    0.0000 O   0  0  0  0  0  0  0  0  0
   -2.3042   -0.1363    0.0000 C   0  0  0  0  0  0  0  0  0
   -0.6542   -0.1363    0.0000 C   0  0  0  0  0  0  0  0  0
    0.1708   -0.1363    0.0000 C   0  0  0  0  0  0  0  0  0
  1  2  1  0  0  0  0
  2  3  4  0  0  0  0
  2 23  4  0  0  0  0
  3  4  4  0  0  0  0
  4  5  1  0  0  0  0
  4 19  4  0  0  0  0
  5  6  1  0  0  0  0
  6  7  1  0  0  0  0
  6  8  1  0  0  0  0
  6 13  1  0  0  0  0
  8  9  1  0  0  0  0
  8 12  1  0  0  0  0
  9 10  1  0  0  0  0
 10 11  1  0  0  0  0
 11 12  1  0  0  0  0
 13 14  1  0  0  0  0
 13 18  1  0  0  0  0
 14 15  1  0  0  0  0
 15 16  1  0  0  0  0
 16 17  1  0  0  0  0
 17 18  1  0  0  0  0
 19 20  1  0  0  0  0
 19 22  4  0  0  0  0
 20 21  1  0  0  0  0
 22 23  4  0  0  0  0
M  END
>  <Name_Molregno>
376439

>  <Norepinephrine transporter>
7.97

$$$$
376460
  Marvin  02231216192D 0   1.00000     0.00000     0

 22 24  0  0  1  0  0  0  0  0999 V2000
    1.1846   -1.9138    0.0000 O   0  0  0  0  0  0  0  0  0
    1.1846   -2.7388    0.0000 C   0  0  0  0  0  0  0  0  0
    1.8990   -3.1513    0.0000 C   0  0  0  0  0  0  0  0  0
    2.6135   -2.7388    0.0000 N   0  0  0  0  0  0  0  0  0
    2.6135   -1.9138    0.0000 C   0  0  0  0  0  0  0  0  0
    1.8990   -1.5013    0.0000 C   0  0  0  0  0  0  0  0  0
    1.8990   -0.6763    0.0000 C   0  0  0  0  0  0  0  0  0
    1.1846   -0.2638    0.0000 O   0  0  0  0  0  0  0  0  0
    1.1846    0.5612    0.0000 C   0  0  0  0  0  0  0  0  0
    1.8990    0.9737    0.0000 C   0  0  0  0  0  0  0  0  0
    1.8990    1.7987    0.0000 C   0  0  0  0  0  0  0  0  0
    1.1846    2.2112    0.0000 C   0  0  0  0  0  0  0  0  0
    0.4701    1.7987    0.0000 C   0  0  0  0  0  0  0  0  0
    0.4701    0.9737    0.0000 C   0  0  0  0  0  0  0  0  0
   -0.2444    0.5612    0.0000 O   0  0  0  0  0  0  0  0  0
   -0.9588    0.9737    0.0000 C   0  0  0  0  0  0  0  0  0
    2.6135   -0.2638    0.0000 C   0  0  0  0  0  0  0  0  0
    2.6135    0.5612    0.0000 C   0  0  0  0  0  0  0  0  0
    3.3280    0.9737    0.0000 C   0  0  0  0  0  0  0  0  0
    4.0425    0.5612    0.0000 C   0  0  0  0  0  0  0  0  0
    4.0425   -0.2638    0.0000 C   0  0  0  0  0  0  0  0  0
    3.3280   -0.6763    0.0000 C   0  0  0  0  0  0  0  0  0
  1  2  1  0  0  0  0
  1  6  1  0  0  0  0
  2  3  1  0  0  0  0
  3  4  1  0  0  0  0
  4  5  1  0  0  0  0
  5  6  1  0  0  0  0
  6  7  1  0  0  0  0
  7  8  1  0  0  0  0
  7 17  1  0  0  0  0
  8  9  1  0  0  0  0
  9 10  4  0  0  0  0
  9 14  4  0  0  0  0
 10 11  4  0  0  0  0
 11 12  4  0  0  0  0
 12 13  4  0  0  0  0
 13 14  4  0  0  0  0
 14 15  1  0  0  0  0
 15 16  1  0  0  0  0
 17 18  4  0  0  0  0
 17 22  4  0  0  0  0
 18 19  4  0  0  0  0
 19 20  4  0  0  0  0
 20 21  4  0  0  0  0
 21 22  4  0  0  0  0
M  END
>  <Name_Molregno>
376460

>  <Dopamine transporter>
5.35

>  <Norepinephrine transporter>
8.56

>  <Serotonin transporter>
6.73

$$$$
382415
  Marvin  02231216192D 0   1.00000     0.00000     0

 18 19  0  0  0  0  0  0  0  0999 V2000
   -0.7360    1.4792    0.0000 S   0  0  0  0  0  0  0  0  0
   -0.9909    0.6946    0.0000 C   0  0  0  0  0  0  0  0  0
   -1.8159    0.6946    0.0000 C   0  0  0  0  0  0  0  0  0
   -2.0709    1.4792    0.0000 N   0  0  0  0  0  0  0  0  0
   -1.4034    1.9642    0.0000 C   0  0  0  0  0  0  0  0  0
   -1.4034    2.7892    0.0000 C   0  0  0  0  0  0  0  0  0
   -0.6890    3.2017    0.0000 F   0  0  0  0  0  0  0  0  0
   -2.3008    0.0272    0.0000 C   0  0  0  0  0  0  0  0  0
   -2.7858   -0.6403    0.0000 C   0  0  0  0  0  0  0  0  0
   -3.2707   -1.3077    0.0000 C   0  0  0  0  0  0  0  0  0
   -2.9351   -2.0614    0.0000 C   0  0  0  0  0  0  0  0  0
   -3.4201   -2.7288    0.0000 C   0  0  0  0  0  0  0  0  0
   -4.2405   -2.6426    0.0000 C   0  0  0  0  0  0  0  0  0
   -4.5761   -1.8889    0.0000 C   0  0  0  0  0  0  0  0  0
   -5.3966   -1.8027    0.0000 F   0  0  0  0  0  0  0  0  0
   -4.0912   -1.2215    0.0000 C   0  0  0  0  0  0  0  0  0
   -3.0845   -3.4825    0.0000 C   0  0  0  0  0  0  0  0  0
   -2.7489   -4.2362    0.0000 N   0  0  0  0  0  0  0  0  0
  1  2  4  0  0  0  0
  1  5  4  0  0  0  0
  2  3  4  0  0  0  0
  3  4  4  0  0  0  0
  3  8  1  0  0  0  0
  4  5  4  0  0  0  0
  5  6  1  0  0  0  0
  6  7  1  0  0  0  0
  8  9  3  0  0  0  0
  9 10  1  0  0  0  0
 10 11  4  0  0  0  0
 10 16  4  0  0  0  0
 11 12  4  0  0  0  0
 12 13  4  0  0  0  0
 12 17  1  0  0  0  0
 13 14  4  0  0  0  0
 14 15  1  0  0  0  0
 14 16  4  0  0  0  0
 17 18  3  0  0  0  0
M  END
>  <Name_Molregno>
382415

>  <5-HT1A>
5

>  <5-HT1B>
5

>  <5-HT1D>
5

>  <5-HT1E>
5

>  <5-HT2A>
5

>  <5-HT2C>
5

>  <5-HT3>
5

>  <5-HT5>
5

>  <5-HT6>
5

>  <5-HT7>
5

>  <Alpha-1A>
5

>  <Alpha-1B>
5

>  <Alpha-2A>
5

>  <Alpha-2B>
5

>  <Alpha-2C>
5

>  <Beta-1>
5

>  <Beta-2>
5

>  <DOPAMINE D1>
5

>  <DOPAMINE D2>
5

>  <DOPAMINE D3>
5

>  <DOPAMINE D4>
5

>  <DOPAMINE D5>
5

>  <Dopamine transporter>
5

>  <HISTAMINE H1>
5

>  <HISTAMINE H2>
5

>  <HISTAMINE H3>
5

>  <HISTAMINE H4>
5

>  <Muscarinic acetylcholine receptor M1>
5

>  <Muscarinic acetylcholine receptor M2>
5

>  <Muscarinic acetylcholine receptor M3>
5

>  <Muscarinic acetylcholine receptor M4>
5

>  <Muscarinic acetylcholine receptor M5>
5

>  <Norepinephrine transporter>
5

>  <Serotonin transporter>
5

$$$$
382978
  Marvin  02231216192D 0   1.00000     0.00000     0

 27 31  0  0  1  0  0  0  0  0999 V2000
    4.7486    1.3860    0.0000 Cl  0  0  0  0  0  0  0  0  0
    4.3368    2.1009    0.0000 C   0  0  0  0  0  0  0  0  0
    3.5118    2.1017    0.0000 C   0  0  0  0  0  0  0  0  0
    3.1000    2.8165    0.0000 C   0  0  0  0  0  0  0  0  0
    3.5132    3.5306    0.0000 C   0  0  0  0  0  0  0  0  0
    4.3382    3.5298    0.0000 C   0  0  0  0  0  0  0  0  0
    4.7500    2.8149    0.0000 C   0  0  0  0  0  0  0  0  0
    3.1014    4.2455    0.0000 C   0  0  0  0  0  0  0  0  0
    2.9632    5.0629    0.0000 C   0  0  0  0  0  0  0  0  0
    2.0344    5.0474    0.0000 C   0  0  0  0  0  0  0  0  0
    1.4738    5.4873    0.0000 N   0  0  0  0  0  0  0  0  0
    1.6135    4.6742    0.0000 C   0  0  0  0  0  0  0  0  0
    1.0936    3.9619    0.0000 C   0  0  0  0  0  0  0  0  0
    1.7139    4.3388    0.0000 C   0  0  0  0  0  0  0  0  0
    2.5852    4.6742    0.0000 C   0  0  0  0  0  0  0  0  0
    2.3050    3.8982    0.0000 C   0  0  0  0  0  0  0  0  0
    2.7681    3.2154    0.0000 S   0  0  0  0  0  0  0  0  0
    2.2618    2.5640    0.0000 C   0  0  0  0  0  0  0  0  0
    1.4859    2.8442    0.0000 C   0  0  0  0  0  0  0  0  0
    1.5126    3.6688    0.0000 N   0  0  0  0  0  0  0  0  0
    2.4912    1.7716    0.0000 C   0  0  0  0  0  0  0  0  0
    3.2922    1.5740    0.0000 C   0  0  0  0  0  0  0  0  0
    3.5216    0.7816    0.0000 C   0  0  0  0  0  0  0  0  0
    2.9500    0.1867    0.0000 C   0  0  0  0  0  0  0  0  0
    2.1490    0.3842    0.0000 C   0  0  0  0  0  0  0  0  0
    1.9196    1.1767    0.0000 C   0  0  0  0  0  0  0  0  0
    1.0512    6.1958    0.0000 C   0  0  0  0  0  0  0  0  0
  1  2  1  0  0  0  0
  2  3  4  0  0  0  0
  2  7  4  0  0  0  0
  3  4  4  0  0  0  0
  4  5  4  0  0  0  0
  5  6  4  0  0  0  0
  5  8  1  0  0  0  0
  6  7  4  0  0  0  0
  8  9  1  0  0  0  0
  8 15  1  0  0  0  0
  9 10  1  0  0  0  0
 10 11  1  0  0  0  0
 10 14  1  0  0  0  0
 11 12  1  0  0  0  0
 11 27  1  0  0  0  0
 12 13  1  0  0  0  0
 12 15  1  0  0  0  0
 13 14  1  0  0  0  0
 15 16  1  0  0  0  0
 16 17  4  0  0  0  0
 16 20  4  0  0  0  0
 17 18  4  0  0  0  0
 18 19  4  0  0  0  0
 18 21  1  0  0  0  0
 19 20  4  0  0  0  0
 21 22  4  0  0  0  0
 21 26  4  0  0  0  0
 22 23  4  0  0  0  0
 23 24  4  0  0  0  0
 24 25  4  0  0  0  0
 25 26  4  0  0  0  0
M  END
>  <Name_Molregno>
382978

>  <Dopamine transporter>
7.74

>  <Norepinephrine transporter>
5.74

>  <Serotonin transporter>
5.57

$$$$
382979
  Marvin  02231216192D 0   1.00000     0.00000     0

 28 32  0  0  1  0  0  0  0  0999 V2000
    4.8898    1.5796    0.0000 Cl  0  0  0  0  0  0  0  0  0
    4.4780    2.2945    0.0000 C   0  0  0  0  0  0  0  0  0
    3.6530    2.2953    0.0000 C   0  0  0  0  0  0  0  0  0
    3.2412    3.0101    0.0000 C   0  0  0  0  0  0  0  0  0
    3.6544    3.7242    0.0000 C   0  0  0  0  0  0  0  0  0
    4.4794    3.7234    0.0000 C   0  0  0  0  0  0  0  0  0
    4.8912    3.0085    0.0000 C   0  0  0  0  0  0  0  0  0
    3.2426    4.4391    0.0000 C   0  0  0  0  0  0  0  0  0
    3.1044    5.2565    0.0000 C   0  0  0  0  0  0  0  0  0
    2.1756    5.2410    0.0000 C   0  0  0  0  0  0  0  0  0
    1.6150    5.6809    0.0000 N   0  0  0  0  0  0  0  0  0
    1.7547    4.8678    0.0000 C   0  0  0  0  0  0  0  0  0
    1.2348    4.1555    0.0000 C   0  0  0  0  0  0  0  0  0
    1.8551    4.5324    0.0000 C   0  0  0  0  0  0  0  0  0
    2.7264    4.8678    0.0000 C   0  0  0  0  0  0  0  0  0
    2.4462    4.0918    0.0000 C   0  0  0  0  0  0  0  0  0
    2.9093    3.4090    0.0000 S   0  0  0  0  0  0  0  0  0
    2.4030    2.7576    0.0000 C   0  0  0  0  0  0  0  0  0
    1.6271    3.0378    0.0000 C   0  0  0  0  0  0  0  0  0
    1.6538    3.8624    0.0000 N   0  0  0  0  0  0  0  0  0
    2.6324    1.9652    0.0000 C   0  0  0  0  0  0  0  0  0
    3.4334    1.7676    0.0000 C   0  0  0  0  0  0  0  0  0
    3.6629    0.9752    0.0000 C   0  0  0  0  0  0  0  0  0
    3.0913    0.3803    0.0000 C   0  0  0  0  0  0  0  0  0
    3.3207   -0.4122    0.0000 F   0  0  0  0  0  0  0  0  0
    2.2903    0.5778    0.0000 C   0  0  0  0  0  0  0  0  0
    2.0609    1.3703    0.0000 C   0  0  0  0  0  0  0  0  0
    1.1924    6.3894    0.0000 C   0  0  0  0  0  0  0  0  0
  1  2  1  0  0  0  0
  2  3  4  0  0  0  0
  2  7  4  0  0  0  0
  3  4  4  0  0  0  0
  4  5  4  0  0  0  0
  5  6  4  0  0  0  0
  5  8  1  0  0  0  0
  6  7  4  0  0  0  0
  8  9  1  0  0  0  0
  8 15  1  0  0  0  0
  9 10  1  0  0  0  0
 10 11  1  0  0  0  0
 10 14  1  0  0  0  0
 11 12  1  0  0  0  0
 11 28  1  0  0  0  0
 12 13  1  0  0  0  0
 12 15  1  0  0  0  0
 13 14  1  0  0  0  0
 15 16  1  0  0  0  0
 16 17  4  0  0  0  0
 16 20  4  0  0  0  0
 17 18  4  0  0  0  0
 18 19  4  0  0  0  0
 18 21  1  0  0  0  0
 19 20  4  0  0  0  0
 21 22  4  0  0  0  0
 21 27  4  0  0  0  0
 22 23  4  0  0  0  0
 23 24  4  0  0  0  0
 24 25  1  0  0  0  0
 24 26  4  0  0  0  0
 26 27  4  0  0  0  0
M  END
>  <Name_Molregno>
382979

>  <Dopamine transporter>
7.92

>  <Norepinephrine transporter>
5.77

>  <Serotonin transporter>
6.19

$$$$
382980
  Marvin  02231216192D 0   1.00000     0.00000     0

 28 32  0  0  1  0  0  0  0  0999 V2000
    4.8898    1.5796    0.0000 Cl  0  0  0  0  0  0  0  0  0
    4.4780    2.2945    0.0000 C   0  0  0  0  0  0  0  0  0
    3.6530    2.2953    0.0000 C   0  0  0  0  0  0  0  0  0
    3.2412    3.0101    0.0000 C   0  0  0  0  0  0  0  0  0
    3.6544    3.7242    0.0000 C   0  0  0  0  0  0  0  0  0
    4.4794    3.7234    0.0000 C   0  0  0  0  0  0  0  0  0
    4.8912    3.0085    0.0000 C   0  0  0  0  0  0  0  0  0
    3.2426    4.4391    0.0000 C   0  0  0  0  0  0  0  0  0
    3.1044    5.2565    0.0000 C   0  0  0  0  0  0  0  0  0
    2.1756    5.2410    0.0000 C   0  0  0  0  0  0  0  0  0
    1.6150    5.6809    0.0000 N   0  0  0  0  0  0  0  0  0
    1.7547    4.8678    0.0000 C   0  0  0  0  0  0  0  0  0
    1.2348    4.1555    0.0000 C   0  0  0  0  0  0  0  0  0
    1.8551    4.5324    0.0000 C   0  0  0  0  0  0  0  0  0
    2.7264    4.8678    0.0000 C   0  0  0  0  0  0  0  0  0
    2.4462    4.0918    0.0000 C   0  0  0  0  0  0  0  0  0
    2.9093    3.4090    0.0000 S   0  0  0  0  0  0  0  0  0
    2.4030    2.7576    0.0000 C   0  0  0  0  0  0  0  0  0
    1.6271    3.0378    0.0000 C   0  0  0  0  0  0  0  0  0
    1.6538    3.8624    0.0000 N   0  0  0  0  0  0  0  0  0
    2.6324    1.9652    0.0000 C   0  0  0  0  0  0  0  0  0
    3.4334    1.7676    0.0000 C   0  0  0  0  0  0  0  0  0
    3.6629    0.9752    0.0000 C   0  0  0  0  0  0  0  0  0
    3.0913    0.3803    0.0000 C   0  0  0  0  0  0  0  0  0
    3.3207   -0.4122    0.0000 Cl  0  0  0  0  0  0  0  0  0
    2.2903    0.5778    0.0000 C   0  0  0  0  0  0  0  0  0
    2.0609    1.3703    0.0000 C   0  0  0  0  0  0  0  0  0
    1.1924    6.3894    0.0000 C   0  0  0  0  0  0  0  0  0
  1  2  1  0  0  0  0
  2  3  4  0  0  0  0
  2  7  4  0  0  0  0
  3  4  4  0  0  0  0
  4  5  4  0  0  0  0
  5  6  4  0  0  0  0
  5  8  1  0  0  0  0
  6  7  4  0  0  0  0
  8  9  1  0  0  0  0
  8 15  1  0  0  0  0
  9 10  1  0  0  0  0
 10 11  1  0  0  0  0
 10 14  1  0  0  0  0
 11 12  1  0  0  0  0
 11 28  1  0  0  0  0
 12 13  1  0  0  0  0
 12 15  1  0  0  0  0
 13 14  1  0  0  0  0
 15 16  1  0  0  0  0
 16 17  4  0  0  0  0
 16 20  4  0  0  0  0
 17 18  4  0  0  0  0
 18 19  4  0  0  0  0
 18 21  1  0  0  0  0
 19 20  4  0  0  0  0
 21 22  4  0  0  0  0
 21 27  4  0  0  0  0
 22 23  4  0  0  0  0
 23 24  4  0  0  0  0
 24 25  1  0  0  0  0
 24 26  4  0  0  0  0
 26 27  4  0  0  0  0
M  END
>  <Name_Molregno>
382980

>  <Dopamine transporter>
7.55

>  <Norepinephrine transporter>
5.57

>  <Serotonin transporter>
5.62

$$$$
382981
  Marvin  02231216192D 0   1.00000     0.00000     0

 28 32  0  0  1  0  0  0  0  0999 V2000
    7.6979    2.1529    0.0000 Br  0  0  0  0  0  0  0  0  0
    6.8984    1.9494    0.0000 C   0  0  0  0  0  0  0  0  0
    6.6748    1.1553    0.0000 C   0  0  0  0  0  0  0  0  0
    5.8753    0.9518    0.0000 C   0  0  0  0  0  0  0  0  0
    5.2993    1.5425    0.0000 C   0  0  0  0  0  0  0  0  0
    5.5229    2.3367    0.0000 C   0  0  0  0  0  0  0  0  0
    6.3224    2.5401    0.0000 C   0  0  0  0  0  0  0  0  0
    4.4998    1.3391    0.0000 C   0  0  0  0  0  0  0  0  0
    4.1944    0.5727    0.0000 S   0  0  0  0  0  0  0  0  0
    3.3712    0.6263    0.0000 C   0  0  0  0  0  0  0  0  0
    3.1677    1.4258    0.0000 N   0  0  0  0  0  0  0  0  0
    3.8653    1.8663    0.0000 C   0  0  0  0  0  0  0  0  0
    2.8439   -0.0083    0.0000 C   0  0  0  0  0  0  0  0  0
    1.9151   -0.0238    0.0000 C   0  0  0  0  0  0  0  0  0
    1.3545    0.4161    0.0000 N   0  0  0  0  0  0  0  0  0
    1.4942   -0.3970    0.0000 C   0  0  0  0  0  0  0  0  0
    2.4659   -0.3970    0.0000 C   0  0  0  0  0  0  0  0  0
    2.9821   -0.8257    0.0000 C   0  0  0  0  0  0  0  0  0
    3.3939   -1.5406    0.0000 C   0  0  0  0  0  0  0  0  0
    4.2189   -1.5414    0.0000 C   0  0  0  0  0  0  0  0  0
    4.6307   -2.2562    0.0000 C   0  0  0  0  0  0  0  0  0
    4.2175   -2.9703    0.0000 C   0  0  0  0  0  0  0  0  0
    4.6293   -3.6852    0.0000 Cl  0  0  0  0  0  0  0  0  0
    3.3925   -2.9695    0.0000 C   0  0  0  0  0  0  0  0  0
    2.9807   -2.2546    0.0000 C   0  0  0  0  0  0  0  0  0
    0.9743   -1.1093    0.0000 C   0  0  0  0  0  0  0  0  0
    1.5946   -0.7324    0.0000 C   0  0  0  0  0  0  0  0  0
    0.9319    1.1247    0.0000 C   0  0  0  0  0  0  0  0  0
  1  2  1  0  0  0  0
  2  3  4  0  0  0  0
  2  7  4  0  0  0  0
  3  4  4  0  0  0  0
  4  5  4  0  0  0  0
  5  6  4  0  0  0  0
  5  8  1  0  0  0  0
  6  7  4  0  0  0  0
  8  9  4  0  0  0  0
  8 12  4  0  0  0  0
  9 10  4  0  0  0  0
 10 11  4  0  0  0  0
 10 13  1  0  0  0  0
 11 12  4  0  0  0  0
 13 14  1  0  0  0  0
 13 18  1  0  0  0  0
 14 15  1  0  0  0  0
 14 27  1  0  0  0  0
 15 16  1  0  0  0  0
 15 28  1  0  0  0  0
 16 17  1  0  0  0  0
 16 26  1  0  0  0  0
 17 18  1  0  0  0  0
 18 19  1  0  0  0  0
 19 20  4  0  0  0  0
 19 25  4  0  0  0  0
 20 21  4  0  0  0  0
 21 22  4  0  0  0  0
 22 23  1  0  0  0  0
 22 24  4  0  0  0  0
 24 25  4  0  0  0  0
 26 27  1  0  0  0  0
M  END
>  <Name_Molregno>
382981

>  <Dopamine transporter>
7.46

>  <Norepinephrine transporter>
5.48

>  <Serotonin transporter>
5.24

$$$$
382982
  Marvin  02231216192D 0   1.00000     0.00000     0

 28 32  0  0  1  0  0  0  0  0999 V2000
    5.6560   -1.8687    0.0000 Br  0  0  0  0  0  0  0  0  0
    5.0800   -1.2781    0.0000 C   0  0  0  0  0  0  0  0  0
    4.2805   -1.4815    0.0000 C   0  0  0  0  0  0  0  0  0
    3.7045   -0.8908    0.0000 C   0  0  0  0  0  0  0  0  0
    3.9281   -0.0967    0.0000 C   0  0  0  0  0  0  0  0  0
    4.7276    0.1067    0.0000 C   0  0  0  0  0  0  0  0  0
    5.3036   -0.4839    0.0000 C   0  0  0  0  0  0  0  0  0
    2.9050   -1.0943    0.0000 C   0  0  0  0  0  0  0  0  0
    2.5997   -1.8607    0.0000 S   0  0  0  0  0  0  0  0  0
    1.7764   -1.8071    0.0000 C   0  0  0  0  0  0  0  0  0
    1.5730   -1.0076    0.0000 N   0  0  0  0  0  0  0  0  0
    2.2705   -0.5670    0.0000 C   0  0  0  0  0  0  0  0  0
    1.2492   -2.4416    0.0000 C   0  0  0  0  0  0  0  0  0
    0.3204   -2.4571    0.0000 C   0  0  0  0  0  0  0  0  0
   -0.2402   -2.0172    0.0000 N   0  0  0  0  0  0  0  0  0
   -0.1005   -2.8303    0.0000 C   0  0  0  0  0  0  0  0  0
    0.8712   -2.8303    0.0000 C   0  0  0  0  0  0  0  0  0
    1.3874   -3.2590    0.0000 C   0  0  0  0  0  0  0  0  0
    1.7992   -3.9739    0.0000 C   0  0  0  0  0  0  0  0  0
    2.6242   -3.9747    0.0000 C   0  0  0  0  0  0  0  0  0
    3.0359   -4.6896    0.0000 C   0  0  0  0  0  0  0  0  0
    2.6227   -5.4037    0.0000 C   0  0  0  0  0  0  0  0  0
    3.0345   -6.1185    0.0000 Cl  0  0  0  0  0  0  0  0  0
    1.7977   -5.4028    0.0000 C   0  0  0  0  0  0  0  0  0
    1.3859   -4.6880    0.0000 C   0  0  0  0  0  0  0  0  0
   -0.6204   -3.5426    0.0000 C   0  0  0  0  0  0  0  0  0
   -0.0001   -3.1657    0.0000 C   0  0  0  0  0  0  0  0  0
   -0.6628   -1.3087    0.0000 C   0  0  0  0  0  0  0  0  0
  1  2  1  0  0  0  0
  2  3  4  0  0  0  0
  2  7  4  0  0  0  0
  3  4  4  0  0  0  0
  4  5  4  0  0  0  0
  4  8  1  0  0  0  0
  5  6  4  0  0  0  0
  6  7  4  0  0  0  0
  8  9  4  0  0  0  0
  8 12  4  0  0  0  0
  9 10  4  0  0  0  0
 10 11  4  0  0  0  0
 10 13  1  0  0  0  0
 11 12  4  0  0  0  0
 13 14  1  0  0  0  0
 13 18  1  0  0  0  0
 14 15  1  0  0  0  0
 14 27  1  0  0  0  0
 15 16  1  0  0  0  0
 15 28  1  0  0  0  0
 16 17  1  0  0  0  0
 16 26  1  0  0  0  0
 17 18  1  0  0  0  0
 18 19  1  0  0  0  0
 19 20  4  0  0  0  0
 19 25  4  0  0  0  0
 20 21  4  0  0  0  0
 21 22  4  0  0  0  0
 22 23  1  0  0  0  0
 22 24  4  0  0  0  0
 24 25  4  0  0  0  0
 26 27  1  0  0  0  0
M  END
>  <Name_Molregno>
382982

>  <Dopamine transporter>
7.41

>  <Norepinephrine transporter>
5.6

>  <Serotonin transporter>
5.82

$$$$
382983
  Marvin  02231216192D 0   1.00000     0.00000     0

 30 34  0  0  1  0  0  0  0  0999 V2000
    6.3839   -0.0493    0.0000 Cl  0  0  0  0  0  0  0  0  0
    5.9721    0.6656    0.0000 C   0  0  0  0  0  0  0  0  0
    5.1471    0.6664    0.0000 C   0  0  0  0  0  0  0  0  0
    4.7353    1.3813    0.0000 C   0  0  0  0  0  0  0  0  0
    5.1485    2.0953    0.0000 C   0  0  0  0  0  0  0  0  0
    5.9735    2.0945    0.0000 C   0  0  0  0  0  0  0  0  0
    6.3853    1.3796    0.0000 C   0  0  0  0  0  0  0  0  0
    4.7367    2.8102    0.0000 C   0  0  0  0  0  0  0  0  0
    4.5985    3.6276    0.0000 C   0  0  0  0  0  0  0  0  0
    3.6697    3.6121    0.0000 C   0  0  0  0  0  0  0  0  0
    3.1091    4.0520    0.0000 N   0  0  0  0  0  0  0  0  0
    3.2488    3.2389    0.0000 C   0  0  0  0  0  0  0  0  0
    2.7289    2.5266    0.0000 C   0  0  0  0  0  0  0  0  0
    3.3492    2.9035    0.0000 C   0  0  0  0  0  0  0  0  0
    4.2205    3.2389    0.0000 C   0  0  0  0  0  0  0  0  0
    3.9403    2.4629    0.0000 C   0  0  0  0  0  0  0  0  0
    4.4034    1.7802    0.0000 S   0  0  0  0  0  0  0  0  0
    3.8971    1.1288    0.0000 C   0  0  0  0  0  0  0  0  0
    3.1212    1.4090    0.0000 C   0  0  0  0  0  0  0  0  0
    3.1479    2.2335    0.0000 N   0  0  0  0  0  0  0  0  0
    4.1265    0.3363    0.0000 C   0  0  0  0  0  0  0  0  0
    4.9275    0.1387    0.0000 C   0  0  0  0  0  0  0  0  0
    5.1570   -0.6537    0.0000 C   0  0  0  0  0  0  0  0  0
    4.5854   -1.2486    0.0000 C   0  0  0  0  0  0  0  0  0
    4.8148   -2.0411    0.0000 N   0  3  0  0  0  0  0  0  0
    5.6158   -2.2386    0.0000 O   0  5  0  0  0  0  0  0  0
    4.2432   -2.6360    0.0000 O   0  5  0  0  0  0  0  0  0
    3.7844   -1.0511    0.0000 C   0  0  0  0  0  0  0  0  0
    3.5550   -0.2586    0.0000 C   0  0  0  0  0  0  0  0  0
    2.6865    4.7605    0.0000 C   0  0  0  0  0  0  0  0  0
  1  2  1  0  0  0  0
  2  3  4  0  0  0  0
  2  7  4  0  0  0  0
  3  4  4  0  0  0  0
  4  5  4  0  0  0  0
  5  6  4  0  0  0  0
  5  8  1  0  0  0  0
  6  7  4  0  0  0  0
  8  9  1  0  0  0  0
  8 15  1  0  0  0  0
  9 10  1  0  0  0  0
 10 11  1  0  0  0  0
 10 14  1  0  0  0  0
 11 12  1  0  0  0  0
 11 30  1  0  0  0  0
 12 13  1  0  0  0  0
 12 15  1  0  0  0  0
 13 14  1  0  0  0  0
 15 16  1  0  0  0  0
 16 17  4  0  0  0  0
 16 20  4  0  0  0  0
 17 18  4  0  0  0  0
 18 19  4  0  0  0  0
 18 21  1  0  0  0  0
 19 20  4  0  0  0  0
 21 22  4  0  0  0  0
 21 29  4  0  0  0  0
 22 23  4  0  0  0  0
 23 24  4  0  0  0  0
 24 25  1  0  0  0  0
 24 28  4  0  0  0  0
 25 26  1  0  0  0  0
 25 27  1  0  0  0  0
 28 29  4  0  0  0  0
M  CHG  3  25   1  26  -1  27  -1
M  END
>  <Name_Molregno>
382983

>  <Dopamine transporter>
8.21

>  <Norepinephrine transporter>
5.64

>  <Serotonin transporter>
5.74

$$$$
382984
  Marvin  02231216192D 0   1.00000     0.00000     0

 30 34  0  0  1  0  0  0  0  0999 V2000
    5.3457    1.7223    0.0000 Cl  0  0  0  0  0  0  0  0  0
    4.9339    2.4372    0.0000 C   0  0  0  0  0  0  0  0  0
    4.1089    2.4380    0.0000 C   0  0  0  0  0  0  0  0  0
    3.6971    3.1529    0.0000 C   0  0  0  0  0  0  0  0  0
    4.1103    3.8669    0.0000 C   0  0  0  0  0  0  0  0  0
    4.9353    3.8661    0.0000 C   0  0  0  0  0  0  0  0  0
    5.3471    3.1512    0.0000 C   0  0  0  0  0  0  0  0  0
    3.6985    4.5818    0.0000 C   0  0  0  0  0  0  0  0  0
    3.5603    5.3992    0.0000 C   0  0  0  0  0  0  0  0  0
    2.6315    5.3837    0.0000 C   0  0  0  0  0  0  0  0  0
    2.0709    5.8236    0.0000 N   0  0  0  0  0  0  0  0  0
    2.2106    5.0105    0.0000 C   0  0  0  0  0  0  0  0  0
    1.6907    4.2982    0.0000 C   0  0  0  0  0  0  0  0  0
    2.3110    4.6751    0.0000 C   0  0  0  0  0  0  0  0  0
    3.1823    5.0105    0.0000 C   0  0  0  0  0  0  0  0  0
    2.9021    4.2346    0.0000 C   0  0  0  0  0  0  0  0  0
    3.3652    3.5518    0.0000 S   0  0  0  0  0  0  0  0  0
    2.8589    2.9004    0.0000 C   0  0  0  0  0  0  0  0  0
    2.0829    3.1806    0.0000 C   0  0  0  0  0  0  0  0  0
    2.1096    4.0051    0.0000 N   0  0  0  0  0  0  0  0  0
    3.0883    2.1079    0.0000 C   0  0  0  0  0  0  0  0  0
    2.5167    1.5130    0.0000 C   0  0  0  0  0  0  0  0  0
    2.7461    0.7205    0.0000 C   0  0  0  0  0  0  0  0  0
    2.1745    0.1256    0.0000 N   0  3  0  0  0  0  0  0  0
    1.3735    0.3232    0.0000 O   0  5  0  0  0  0  0  0  0
    2.4039   -0.6668    0.0000 O   0  5  0  0  0  0  0  0  0
    3.5471    0.5230    0.0000 C   0  0  0  0  0  0  0  0  0
    4.1187    1.1179    0.0000 C   0  0  0  0  0  0  0  0  0
    3.8893    1.9104    0.0000 C   0  0  0  0  0  0  0  0  0
    1.6483    6.5322    0.0000 C   0  0  0  0  0  0  0  0  0
  1  2  1  0  0  0  0
  2  3  4  0  0  0  0
  2  7  4  0  0  0  0
  3  4  4  0  0  0  0
  4  5  4  0  0  0  0
  5  6  4  0  0  0  0
  5  8  1  0  0  0  0
  6  7  4  0  0  0  0
  8  9  1  0  0  0  0
  8 15  1  0  0  0  0
  9 10  1  0  0  0  0
 10 11  1  0  0  0  0
 10 14  1  0  0  0  0
 11 12  1  0  0  0  0
 11 30  1  0  0  0  0
 12 13  1  0  0  0  0
 12 15  1  0  0  0  0
 13 14  1  0  0  0  0
 15 16  1  0  0  0  0
 16 17  4  0  0  0  0
 16 20  4  0  0  0  0
 17 18  4  0  0  0  0
 18 19  4  0  0  0  0
 18 21  1  0  0  0  0
 19 20  4  0  0  0  0
 21 22  4  0  0  0  0
 21 29  4  0  0  0  0
 22 23  4  0  0  0  0
 23 24  1  0  0  0  0
 23 27  4  0  0  0  0
 24 25  1  0  0  0  0
 24 26  1  0  0  0  0
 27 28  4  0  0  0  0
 28 29  4  0  0  0  0
M  CHG  3  24   1  25  -1  26  -1
M  END
>  <Name_Molregno>
382984

>  <Dopamine transporter>
8.11

>  <Norepinephrine transporter>
5.6

>  <Serotonin transporter>
6.13

$$$$
382985
  Marvin  02231216192D 0   1.00000     0.00000     0

 29 33  0  0  1  0  0  0  0  0999 V2000
    6.2187   -0.1850    0.0000 Cl  0  0  0  0  0  0  0  0  0
    5.8069    0.5299    0.0000 C   0  0  0  0  0  0  0  0  0
    4.9819    0.5307    0.0000 C   0  0  0  0  0  0  0  0  0
    4.5701    1.2456    0.0000 C   0  0  0  0  0  0  0  0  0
    4.9833    1.9597    0.0000 C   0  0  0  0  0  0  0  0  0
    5.8083    1.9589    0.0000 C   0  0  0  0  0  0  0  0  0
    6.2201    1.2440    0.0000 C   0  0  0  0  0  0  0  0  0
    4.5715    2.6746    0.0000 C   0  0  0  0  0  0  0  0  0
    4.4333    3.4920    0.0000 C   0  0  0  0  0  0  0  0  0
    3.5045    3.4765    0.0000 C   0  0  0  0  0  0  0  0  0
    2.9439    3.9164    0.0000 N   0  0  0  0  0  0  0  0  0
    3.0836    3.1033    0.0000 C   0  0  0  0  0  0  0  0  0
    2.5637    2.3910    0.0000 C   0  0  0  0  0  0  0  0  0
    3.1840    2.7679    0.0000 C   0  0  0  0  0  0  0  0  0
    4.0553    3.1033    0.0000 C   0  0  0  0  0  0  0  0  0
    3.7751    2.3273    0.0000 C   0  0  0  0  0  0  0  0  0
    4.2382    1.6445    0.0000 S   0  0  0  0  0  0  0  0  0
    3.7319    0.9931    0.0000 C   0  0  0  0  0  0  0  0  0
    2.9559    1.2733    0.0000 C   0  0  0  0  0  0  0  0  0
    2.9826    2.0979    0.0000 N   0  0  0  0  0  0  0  0  0
    3.9613    0.2007    0.0000 C   0  0  0  0  0  0  0  0  0
    4.7623    0.0031    0.0000 C   0  0  0  0  0  0  0  0  0
    4.9917   -0.7894    0.0000 C   0  0  0  0  0  0  0  0  0
    4.4201   -1.3843    0.0000 C   0  0  0  0  0  0  0  0  0
    4.6495   -2.1767    0.0000 O   0  0  0  0  0  0  0  0  0
    5.4505   -2.3743    0.0000 C   0  0  0  0  0  0  0  0  0
    3.6191   -1.1867    0.0000 C   0  0  0  0  0  0  0  0  0
    3.3897   -0.3943    0.0000 C   0  0  0  0  0  0  0  0  0
    2.5213    4.6249    0.0000 C   0  0  0  0  0  0  0  0  0
  1  2  1  0  0  0  0
  2  3  4  0  0  0  0
  2  7  4  0  0  0  0
  3  4  4  0  0  0  0
  4  5  4  0  0  0  0
  5  6  4  0  0  0  0
  5  8  1  0  0  0  0
  6  7  4  0  0  0  0
  8  9  1  0  0  0  0
  8 15  1  0  0  0  0
  9 10  1  0  0  0  0
 10 11  1  0  0  0  0
 10 14  1  0  0  0  0
 11 12  1  0  0  0  0
 11 29  1  0  0  0  0
 12 13  1  0  0  0  0
 12 15  1  0  0  0  0
 13 14  1  0  0  0  0
 15 16  1  0  0  0  0
 16 17  4  0  0  0  0
 16 20  4  0  0  0  0
 17 18  4  0  0  0  0
 18 19  4  0  0  0  0
 18 21  1  0  0  0  0
 19 20  4  0  0  0  0
 21 22  4  0  0  0  0
 21 28  4  0  0  0  0
 22 23  4  0  0  0  0
 23 24  4  0  0  0  0
 24 25  1  0  0  0  0
 24 27  4  0  0  0  0
 25 26  1  0  0  0  0
 27 28  4  0  0  0  0
M  END
>  <Name_Molregno>
382985

>  <Dopamine transporter>
8.07

>  <Norepinephrine transporter>
5.9

>  <Serotonin transporter>
5.28

$$$$
382988
  Marvin  02231216192D 0   1.00000     0.00000     0

 29 33  0  0  1  0  0  0  0  0999 V2000
    6.2182   -0.8264    0.0000 Cl  0  0  0  0  0  0  0  0  0
    5.6423   -0.2357    0.0000 C   0  0  0  0  0  0  0  0  0
    4.8428   -0.4391    0.0000 C   0  0  0  0  0  0  0  0  0
    4.2668    0.1515    0.0000 C   0  0  0  0  0  0  0  0  0
    4.4904    0.9457    0.0000 C   0  0  0  0  0  0  0  0  0
    5.2899    1.1491    0.0000 C   0  0  0  0  0  0  0  0  0
    5.8659    0.5584    0.0000 C   0  0  0  0  0  0  0  0  0
    6.6654    0.7619    0.0000 Cl  0  0  0  0  0  0  0  0  0
    3.4673   -0.0519    0.0000 C   0  0  0  0  0  0  0  0  0
    3.1620   -0.8183    0.0000 S   0  0  0  0  0  0  0  0  0
    2.3387   -0.7647    0.0000 C   0  0  0  0  0  0  0  0  0
    2.1352    0.0348    0.0000 N   0  0  0  0  0  0  0  0  0
    2.8328    0.4753    0.0000 C   0  0  0  0  0  0  0  0  0
    1.8114   -1.3993    0.0000 C   0  0  0  0  0  0  0  0  0
    0.8826   -1.4148    0.0000 C   0  0  0  0  0  0  0  0  0
    0.3220   -0.9749    0.0000 N   0  0  0  0  0  0  0  0  0
    0.4617   -1.7880    0.0000 C   0  0  0  0  0  0  0  0  0
    1.4334   -1.7880    0.0000 C   0  0  0  0  0  0  0  0  0
    1.9496   -2.2167    0.0000 C   0  0  0  0  0  0  0  0  0
    2.3614   -2.9315    0.0000 C   0  0  0  0  0  0  0  0  0
    3.1864   -2.9324    0.0000 C   0  0  0  0  0  0  0  0  0
    3.5982   -3.6472    0.0000 C   0  0  0  0  0  0  0  0  0
    3.1850   -4.3613    0.0000 C   0  0  0  0  0  0  0  0  0
    3.5968   -5.0762    0.0000 Cl  0  0  0  0  0  0  0  0  0
    2.3600   -4.3605    0.0000 C   0  0  0  0  0  0  0  0  0
    1.9482   -3.6456    0.0000 C   0  0  0  0  0  0  0  0  0
   -0.0582   -2.5003    0.0000 C   0  0  0  0  0  0  0  0  0
    0.5621   -2.1234    0.0000 C   0  0  0  0  0  0  0  0  0
   -0.1006   -0.2663    0.0000 C   0  0  0  0  0  0  0  0  0
  1  2  1  0  0  0  0
  2  3  4  0  0  0  0
  2  7  4  0  0  0  0
  3  4  4  0  0  0  0
  4  5  4  0  0  0  0
  4  9  1  0  0  0  0
  5  6  4  0  0  0  0
  6  7  4  0  0  0  0
  7  8  1  0  0  0  0
  9 10  4  0  0  0  0
  9 13  4  0  0  0  0
 10 11  4  0  0  0  0
 11 12  4  0  0  0  0
 11 14  1  0  0  0  0
 12 13  4  0  0  0  0
 14 15  1  0  0  0  0
 14 19  1  0  0  0  0
 15 16  1  0  0  0  0
 15 28  1  0  0  0  0
 16 17  1  0  0  0  0
 16 29  1  0  0  0  0
 17 18  1  0  0  0  0
 17 27  1  0  0  0  0
 18 19  1  0  0  0  0
 19 20  1  0  0  0  0
 20 21  4  0  0  0  0
 20 26  4  0  0  0  0
 21 22  4  0  0  0  0
 22 23  4  0  0  0  0
 23 24  1  0  0  0  0
 23 25  4  0  0  0  0
 25 26  4  0  0  0  0
 27 28  1  0  0  0  0
M  END
>  <Name_Molregno>
382988

>  <Dopamine transporter>
7.18

>  <Norepinephrine transporter>
5.64

>  <Serotonin transporter>
5.57

$$$$
382989
  Marvin  02231216192D 0   1.00000     0.00000     0

 31 35  0  0  1  0  0  0  0  0999 V2000
    6.3154   -0.0913    0.0000 Cl  0  0  0  0  0  0  0  0  0
    5.9036    0.6236    0.0000 C   0  0  0  0  0  0  0  0  0
    5.0786    0.6244    0.0000 C   0  0  0  0  0  0  0  0  0
    4.6668    1.3393    0.0000 C   0  0  0  0  0  0  0  0  0
    5.0800    2.0533    0.0000 C   0  0  0  0  0  0  0  0  0
    5.9050    2.0525    0.0000 C   0  0  0  0  0  0  0  0  0
    6.3168    1.3376    0.0000 C   0  0  0  0  0  0  0  0  0
    4.6682    2.7682    0.0000 C   0  0  0  0  0  0  0  0  0
    4.5300    3.5856    0.0000 C   0  0  0  0  0  0  0  0  0
    3.6012    3.5701    0.0000 C   0  0  0  0  0  0  0  0  0
    3.0406    4.0100    0.0000 N   0  0  0  0  0  0  0  0  0
    3.1803    3.1969    0.0000 C   0  0  0  0  0  0  0  0  0
    2.6604    2.4846    0.0000 C   0  0  0  0  0  0  0  0  0
    3.2807    2.8615    0.0000 C   0  0  0  0  0  0  0  0  0
    4.1520    3.1969    0.0000 C   0  0  0  0  0  0  0  0  0
    3.8718    2.4210    0.0000 C   0  0  0  0  0  0  0  0  0
    4.3349    1.7382    0.0000 S   0  0  0  0  0  0  0  0  0
    3.8286    1.0868    0.0000 C   0  0  0  0  0  0  0  0  0
    3.0527    1.3670    0.0000 C   0  0  0  0  0  0  0  0  0
    3.0794    2.1915    0.0000 N   0  0  0  0  0  0  0  0  0
    4.0580    0.2943    0.0000 C   0  0  0  0  0  0  0  0  0
    4.8590    0.0968    0.0000 C   0  0  0  0  0  0  0  0  0
    5.0885   -0.6957    0.0000 C   0  0  0  0  0  0  0  0  0
    5.8895   -0.8933    0.0000 O   0  0  0  0  0  0  0  0  0
    6.1189   -1.6857    0.0000 C   0  0  0  0  0  0  0  0  0
    4.5169   -1.2906    0.0000 C   0  0  0  0  0  0  0  0  0
    4.7463   -2.0831    0.0000 O   0  0  0  0  0  0  0  0  0
    5.5473   -2.2806    0.0000 C   0  0  0  0  0  0  0  0  0
    3.7159   -1.0931    0.0000 C   0  0  0  0  0  0  0  0  0
    3.4865   -0.3006    0.0000 C   0  0  0  0  0  0  0  0  0
    2.6180    4.7186    0.0000 C   0  0  0  0  0  0  0  0  0
  1  2  1  0  0  0  0
  2  3  4  0  0  0  0
  2  7  4  0  0  0  0
  3  4  4  0  0  0  0
  4  5  4  0  0  0  0
  5  6  4  0  0  0  0
  5  8  1  0  0  0  0
  6  7  4  0  0  0  0
  8  9  1  0  0  0  0
  8 15  1  0  0  0  0
  9 10  1  0  0  0  0
 10 11  1  0  0  0  0
 10 14  1  0  0  0  0
 11 12  1  0  0  0  0
 11 31  1  0  0  0  0
 12 13  1  0  0  0  0
 12 15  1  0  0  0  0
 13 14  1  0  0  0  0
 15 16  1  0  0  0  0
 16 17  4  0  0  0  0
 16 20  4  0  0  0  0
 17 18  4  0  0  0  0
 18 19  4  0  0  0  0
 18 21  1  0  0  0  0
 19 20  4  0  0  0  0
 21 22  4  0  0  0  0
 21 30  4  0  0  0  0
 22 23  4  0  0  0  0
 23 24  1  0  0  0  0
 23 26  4  0  0  0  0
 24 25  1  0  0  0  0
 26 27  1  0  0  0  0
 26 29  4  0  0  0  0
 27 28  1  0  0  0  0
 29 30  4  0  0  0  0
M  END
>  <Name_Molregno>
382989

>  <Dopamine transporter>
6.63

>  <Norepinephrine transporter>
5.72

>  <Serotonin transporter>
5.44

$$$$
382990
  Marvin  02231216192D 0   1.00000     0.00000     0

 28 32  0  0  1  0  0  0  0  0999 V2000
   -0.2622    1.5676    0.0000 S   0  0  0  0  0  0  0  0  0
    0.4353    2.0081    0.0000 C   0  0  0  0  0  0  0  0  0
    1.0698    1.4809    0.0000 C   0  0  0  0  0  0  0  0  0
    0.7645    0.7145    0.0000 N   0  0  0  0  0  0  0  0  0
   -0.0588    0.7680    0.0000 C   0  0  0  0  0  0  0  0  0
   -0.5860    0.1335    0.0000 C   0  0  0  0  0  0  0  0  0
   -1.5148    0.1180    0.0000 C   0  0  0  0  0  0  0  0  0
   -2.0754    0.5579    0.0000 N   0  0  0  0  0  0  0  0  0
   -1.9357   -0.2552    0.0000 C   0  0  0  0  0  0  0  0  0
   -0.9640   -0.2552    0.0000 C   0  0  0  0  0  0  0  0  0
   -0.4478   -0.6839    0.0000 C   0  0  0  0  0  0  0  0  0
   -0.0360   -1.3988    0.0000 C   0  0  0  0  0  0  0  0  0
    0.7890   -1.3996    0.0000 C   0  0  0  0  0  0  0  0  0
    1.2008   -2.1145    0.0000 C   0  0  0  0  0  0  0  0  0
    0.7875   -2.8285    0.0000 C   0  0  0  0  0  0  0  0  0
   -0.0375   -2.8277    0.0000 C   0  0  0  0  0  0  0  0  0
   -0.4492   -2.1128    0.0000 C   0  0  0  0  0  0  0  0  0
    1.1993   -3.5434    0.0000 C   0  0  0  0  0  0  0  0  0
   -2.4556   -0.9675    0.0000 C   0  0  0  0  0  0  0  0  0
   -1.8353   -0.5906    0.0000 C   0  0  0  0  0  0  0  0  0
   -2.4980    1.2664    0.0000 C   0  0  0  0  0  0  0  0  0
    0.4889    2.8314    0.0000 C   0  0  0  0  0  0  0  0  0
   -0.1973    3.2894    0.0000 C   0  0  0  0  0  0  0  0  0
   -0.1437    4.1127    0.0000 C   0  0  0  0  0  0  0  0  0
    0.5960    4.4779    0.0000 C   0  0  0  0  0  0  0  0  0
    0.6496    5.3011    0.0000 F   0  0  0  0  0  0  0  0  0
    1.2822    4.0198    0.0000 C   0  0  0  0  0  0  0  0  0
    1.2286    3.1966    0.0000 C   0  0  0  0  0  0  0  0  0
  1  2  4  0  0  0  0
  1  5  4  0  0  0  0
  2  3  4  0  0  0  0
  2 22  1  0  0  0  0
  3  4  4  0  0  0  0
  4  5  4  0  0  0  0
  5  6  1  0  0  0  0
  6  7  1  0  0  0  0
  6 11  1  0  0  0  0
  7  8  1  0  0  0  0
  7 20  1  0  0  0  0
  8  9  1  0  0  0  0
  8 21  1  0  0  0  0
  9 10  1  0  0  0  0
  9 19  1  0  0  0  0
 10 11  1  0  0  0  0
 11 12  1  0  0  0  0
 12 13  4  0  0  0  0
 12 17  4  0  0  0  0
 13 14  4  0  0  0  0
 14 15  4  0  0  0  0
 15 16  4  0  0  0  0
 15 18  1  0  0  0  0
 16 17  4  0  0  0  0
 19 20  1  0  0  0  0
 22 23  4  0  0  0  0
 22 28  4  0  0  0  0
 23 24  4  0  0  0  0
 24 25  4  0  0  0  0
 25 26  1  0  0  0  0
 25 27  4  0  0  0  0
 27 28  4  0  0  0  0
M  END
>  <Name_Molregno>
382990

>  <Dopamine transporter>
7.21

>  <Norepinephrine transporter>
5.79

>  <Serotonin transporter>
5.76

$$$$
382991
  Marvin  02231216192D 0   1.00000     0.00000     0

 28 32  0  0  1  0  0  0  0  0999 V2000
    7.6979    2.1529    0.0000 Cl  0  0  0  0  0  0  0  0  0
    6.8984    1.9494    0.0000 C   0  0  0  0  0  0  0  0  0
    6.6748    1.1553    0.0000 C   0  0  0  0  0  0  0  0  0
    5.8753    0.9518    0.0000 C   0  0  0  0  0  0  0  0  0
    5.2993    1.5425    0.0000 C   0  0  0  0  0  0  0  0  0
    5.5229    2.3367    0.0000 C   0  0  0  0  0  0  0  0  0
    6.3224    2.5401    0.0000 C   0  0  0  0  0  0  0  0  0
    4.4998    1.3391    0.0000 C   0  0  0  0  0  0  0  0  0
    4.1944    0.5727    0.0000 S   0  0  0  0  0  0  0  0  0
    3.3712    0.6263    0.0000 C   0  0  0  0  0  0  0  0  0
    3.1677    1.4258    0.0000 N   0  0  0  0  0  0  0  0  0
    3.8653    1.8663    0.0000 C   0  0  0  0  0  0  0  0  0
    2.8439   -0.0083    0.0000 C   0  0  0  0  0  0  0  0  0
    1.9151   -0.0238    0.0000 C   0  0  0  0  0  0  0  0  0
    1.3545    0.4161    0.0000 N   0  0  0  0  0  0  0  0  0
    1.4942   -0.3970    0.0000 C   0  0  0  0  0  0  0  0  0
    2.4659   -0.3970    0.0000 C   0  0  0  0  0  0  0  0  0
    2.9821   -0.8257    0.0000 C   0  0  0  0  0  0  0  0  0
    3.3939   -1.5406    0.0000 C   0  0  0  0  0  0  0  0  0
    4.2189   -1.5414    0.0000 C   0  0  0  0  0  0  0  0  0
    4.6307   -2.2562    0.0000 C   0  0  0  0  0  0  0  0  0
    4.2175   -2.9703    0.0000 C   0  0  0  0  0  0  0  0  0
    3.3925   -2.9695    0.0000 C   0  0  0  0  0  0  0  0  0
    2.9807   -2.2546    0.0000 C   0  0  0  0  0  0  0  0  0
    4.6293   -3.6852    0.0000 C   0  0  0  0  0  0  0  0  0
    0.9743   -1.1093    0.0000 C   0  0  0  0  0  0  0  0  0
    1.5946   -0.7324    0.0000 C   0  0  0  0  0  0  0  0  0
    0.9319    1.1247    0.0000 C   0  0  0  0  0  0  0  0  0
  1  2  1  0  0  0  0
  2  3  4  0  0  0  0
  2  7  4  0  0  0  0
  3  4  4  0  0  0  0
  4  5  4  0  0  0  0
  5  6  4  0  0  0  0
  5  8  1  0  0  0  0
  6  7  4  0  0  0  0
  8  9  4  0  0  0  0
  8 12  4  0  0  0  0
  9 10  4  0  0  0  0
 10 11  4  0  0  0  0
 10 13  1  0  0  0  0
 11 12  4  0  0  0  0
 13 14  1  0  0  0  0
 13 18  1  0  0  0  0
 14 15  1  0  0  0  0
 14 27  1  0  0  0  0
 15 16  1  0  0  0  0
 15 28  1  0  0  0  0
 16 17  1  0  0  0  0
 16 26  1  0  0  0  0
 17 18  1  0  0  0  0
 18 19  1  0  0  0  0
 19 20  4  0  0  0  0
 19 24  4  0  0  0  0
 20 21  4  0  0  0  0
 21 22  4  0  0  0  0
 22 23  4  0  0  0  0
 22 25  1  0  0  0  0
 23 24  4  0  0  0  0
 26 27  1  0  0  0  0
M  END
>  <Name_Molregno>
382991

>  <Dopamine transporter>
6.67

>  <Norepinephrine transporter>
5.54

>  <Serotonin transporter>
5.88

$$$$
382992
  Marvin  02231216192D 0   1.00000     0.00000     0

 28 32  0  0  1  0  0  0  0  0999 V2000
    7.6979    2.1529    0.0000 Br  0  0  0  0  0  0  0  0  0
    6.8984    1.9494    0.0000 C   0  0  0  0  0  0  0  0  0
    6.6748    1.1553    0.0000 C   0  0  0  0  0  0  0  0  0
    5.8753    0.9518    0.0000 C   0  0  0  0  0  0  0  0  0
    5.2993    1.5425    0.0000 C   0  0  0  0  0  0  0  0  0
    5.5229    2.3367    0.0000 C   0  0  0  0  0  0  0  0  0
    6.3224    2.5401    0.0000 C   0  0  0  0  0  0  0  0  0
    4.4998    1.3391    0.0000 C   0  0  0  0  0  0  0  0  0
    4.1944    0.5727    0.0000 S   0  0  0  0  0  0  0  0  0
    3.3712    0.6263    0.0000 C   0  0  0  0  0  0  0  0  0
    3.1677    1.4258    0.0000 N   0  0  0  0  0  0  0  0  0
    3.8653    1.8663    0.0000 C   0  0  0  0  0  0  0  0  0
    2.8439   -0.0083    0.0000 C   0  0  0  0  0  0  0  0  0
    1.9151   -0.0238    0.0000 C   0  0  0  0  0  0  0  0  0
    1.3545    0.4161    0.0000 N   0  0  0  0  0  0  0  0  0
    1.4942   -0.3970    0.0000 C   0  0  0  0  0  0  0  0  0
    2.4659   -0.3970    0.0000 C   0  0  0  0  0  0  0  0  0
    2.9821   -0.8257    0.0000 C   0  0  0  0  0  0  0  0  0
    3.3939   -1.5406    0.0000 C   0  0  0  0  0  0  0  0  0
    4.2189   -1.5414    0.0000 C   0  0  0  0  0  0  0  0  0
    4.6307   -2.2562    0.0000 C   0  0  0  0  0  0  0  0  0
    4.2175   -2.9703    0.0000 C   0  0  0  0  0  0  0  0  0
    3.3925   -2.9695    0.0000 C   0  0  0  0  0  0  0  0  0
    2.9807   -2.2546    0.0000 C   0  0  0  0  0  0  0  0  0
    4.6293   -3.6852    0.0000 C   0  0  0  0  0  0  0  0  0
    0.9743   -1.1093    0.0000 C   0  0  0  0  0  0  0  0  0
    1.5946   -0.7324    0.0000 C   0  0  0  0  0  0  0  0  0
    0.9319    1.1247    0.0000 C   0  0  0  0  0  0  0  0  0
  1  2  1  0  0  0  0
  2  3  4  0  0  0  0
  2  7  4  0  0  0  0
  3  4  4  0  0  0  0
  4  5  4  0  0  0  0
  5  6  4  0  0  0  0
  5  8  1  0  0  0  0
  6  7  4  0  0  0  0
  8  9  4  0  0  0  0
  8 12  4  0  0  0  0
  9 10  4  0  0  0  0
 10 11  4  0  0  0  0
 10 13  1  0  0  0  0
 11 12  4  0  0  0  0
 13 14  1  0  0  0  0
 13 18  1  0  0  0  0
 14 15  1  0  0  0  0
 14 27  1  0  0  0  0
 15 16  1  0  0  0  0
 15 28  1  0  0  0  0
 16 17  1  0  0  0  0
 16 26  1  0  0  0  0
 17 18  1  0  0  0  0
 18 19  1  0  0  0  0
 19 20  4  0  0  0  0
 19 24  4  0  0  0  0
 20 21  4  0  0  0  0
 21 22  4  0  0  0  0
 22 23  4  0  0  0  0
 22 25  1  0  0  0  0
 23 24  4  0  0  0  0
 26 27  1  0  0  0  0
M  END
>  <Name_Molregno>
382992

>  <Dopamine transporter>
6.89

>  <Norepinephrine transporter>
5.37

>  <Serotonin transporter>
5.73

$$$$
382993
  Marvin  02231216192D 0   1.00000     0.00000     0

 28 32  0  0  1  0  0  0  0  0999 V2000
    5.6560   -1.8687    0.0000 Br  0  0  0  0  0  0  0  0  0
    5.0800   -1.2781    0.0000 C   0  0  0  0  0  0  0  0  0
    4.2805   -1.4815    0.0000 C   0  0  0  0  0  0  0  0  0
    3.7045   -0.8908    0.0000 C   0  0  0  0  0  0  0  0  0
    3.9281   -0.0967    0.0000 C   0  0  0  0  0  0  0  0  0
    4.7276    0.1067    0.0000 C   0  0  0  0  0  0  0  0  0
    5.3036   -0.4839    0.0000 C   0  0  0  0  0  0  0  0  0
    2.9050   -1.0943    0.0000 C   0  0  0  0  0  0  0  0  0
    2.5997   -1.8607    0.0000 S   0  0  0  0  0  0  0  0  0
    1.7764   -1.8071    0.0000 C   0  0  0  0  0  0  0  0  0
    1.5730   -1.0076    0.0000 N   0  0  0  0  0  0  0  0  0
    2.2705   -0.5670    0.0000 C   0  0  0  0  0  0  0  0  0
    1.2492   -2.4416    0.0000 C   0  0  0  0  0  0  0  0  0
    0.3204   -2.4571    0.0000 C   0  0  0  0  0  0  0  0  0
   -0.2402   -2.0172    0.0000 N   0  0  0  0  0  0  0  0  0
   -0.1005   -2.8303    0.0000 C   0  0  0  0  0  0  0  0  0
    0.8712   -2.8303    0.0000 C   0  0  0  0  0  0  0  0  0
    1.3874   -3.2590    0.0000 C   0  0  0  0  0  0  0  0  0
    1.7992   -3.9739    0.0000 C   0  0  0  0  0  0  0  0  0
    2.6242   -3.9747    0.0000 C   0  0  0  0  0  0  0  0  0
    3.0359   -4.6896    0.0000 C   0  0  0  0  0  0  0  0  0
    2.6227   -5.4037    0.0000 C   0  0  0  0  0  0  0  0  0
    1.7977   -5.4028    0.0000 C   0  0  0  0  0  0  0  0  0
    1.3859   -4.6880    0.0000 C   0  0  0  0  0  0  0  0  0
    3.0345   -6.1185    0.0000 C   0  0  0  0  0  0  0  0  0
   -0.6204   -3.5426    0.0000 C   0  0  0  0  0  0  0  0  0
   -0.0001   -3.1657    0.0000 C   0  0  0  0  0  0  0  0  0
   -0.6628   -1.3087    0.0000 C   0  0  0  0  0  0  0  0  0
  1  2  1  0  0  0  0
  2  3  4  0  0  0  0
  2  7  4  0  0  0  0
  3  4  4  0  0  0  0
  4  5  4  0  0  0  0
  4  8  1  0  0  0  0
  5  6  4  0  0  0  0
  6  7  4  0  0  0  0
  8  9  4  0  0  0  0
  8 12  4  0  0  0  0
  9 10  4  0  0  0  0
 10 11  4  0  0  0  0
 10 13  1  0  0  0  0
 11 12  4  0  0  0  0
 13 14  1  0  0  0  0
 13 18  1  0  0  0  0
 14 15  1  0  0  0  0
 14 27  1  0  0  0  0
 15 16  1  0  0  0  0
 15 28  1  0  0  0  0
 16 17  1  0  0  0  0
 16 26  1  0  0  0  0
 17 18  1  0  0  0  0
 18 19  1  0  0  0  0
 19 20  4  0  0  0  0
 19 24  4  0  0  0  0
 20 21  4  0  0  0  0
 21 22  4  0  0  0  0
 22 23  4  0  0  0  0
 22 25  1  0  0  0  0
 23 24  4  0  0  0  0
 26 27  1  0  0  0  0
M  END
>  <Name_Molregno>
382993

>  <Dopamine transporter>
7.92

>  <Norepinephrine transporter>
5.66

>  <Serotonin transporter>
6.06

$$$$
382995
  Marvin  02231216192D 0   1.00000     0.00000     0

 30 34  0  0  1  0  0  0  0  0999 V2000
   -0.2463    1.2427    0.0000 S   0  0  0  0  0  0  0  0  0
    0.4512    1.6833    0.0000 C   0  0  0  0  0  0  0  0  0
    1.0857    1.1560    0.0000 C   0  0  0  0  0  0  0  0  0
    0.7804    0.3896    0.0000 N   0  0  0  0  0  0  0  0  0
   -0.0429    0.4432    0.0000 C   0  0  0  0  0  0  0  0  0
   -0.5701   -0.1913    0.0000 C   0  0  0  0  0  0  0  0  0
   -1.4989   -0.2068    0.0000 C   0  0  0  0  0  0  0  0  0
   -2.0595    0.2331    0.0000 N   0  0  0  0  0  0  0  0  0
   -1.9198   -0.5800    0.0000 C   0  0  0  0  0  0  0  0  0
   -0.9481   -0.5800    0.0000 C   0  0  0  0  0  0  0  0  0
   -0.4319   -1.0087    0.0000 C   0  0  0  0  0  0  0  0  0
   -0.0201   -1.7236    0.0000 C   0  0  0  0  0  0  0  0  0
    0.8049   -1.7244    0.0000 C   0  0  0  0  0  0  0  0  0
    1.2167   -2.4393    0.0000 C   0  0  0  0  0  0  0  0  0
    0.8035   -3.1534    0.0000 C   0  0  0  0  0  0  0  0  0
   -0.0215   -3.1526    0.0000 C   0  0  0  0  0  0  0  0  0
   -0.4333   -2.4377    0.0000 C   0  0  0  0  0  0  0  0  0
    1.2152   -3.8682    0.0000 C   0  0  0  0  0  0  0  0  0
   -2.4397   -1.2923    0.0000 C   0  0  0  0  0  0  0  0  0
   -1.8194   -0.9154    0.0000 C   0  0  0  0  0  0  0  0  0
   -2.4821    0.9416    0.0000 C   0  0  0  0  0  0  0  0  0
    0.5048    2.5065    0.0000 C   0  0  0  0  0  0  0  0  0
   -0.1814    2.9646    0.0000 C   0  0  0  0  0  0  0  0  0
   -0.1278    3.7878    0.0000 C   0  0  0  0  0  0  0  0  0
    0.6119    4.1530    0.0000 C   0  0  0  0  0  0  0  0  0
    0.6655    4.9763    0.0000 N   0  3  0  0  0  0  0  0  0
   -0.0207    5.4343    0.0000 O   0  5  0  0  0  0  0  0  0
    1.4053    5.3415    0.0000 O   0  5  0  0  0  0  0  0  0
    1.2981    3.6950    0.0000 C   0  0  0  0  0  0  0  0  0
    1.2445    2.8718    0.0000 C   0  0  0  0  0  0  0  0  0
  1  2  4  0  0  0  0
  1  5  4  0  0  0  0
  2  3  4  0  0  0  0
  2 22  1  0  0  0  0
  3  4  4  0  0  0  0
  4  5  4  0  0  0  0
  5  6  1  0  0  0  0
  6  7  1  0  0  0  0
  6 11  1  0  0  0  0
  7  8  1  0  0  0  0
  7 20  1  0  0  0  0
  8  9  1  0  0  0  0
  8 21  1  0  0  0  0
  9 10  1  0  0  0  0
  9 19  1  0  0  0  0
 10 11  1  0  0  0  0
 11 12  1  0  0  0  0
 12 13  4  0  0  0  0
 12 17  4  0  0  0  0
 13 14  4  0  0  0  0
 14 15  4  0  0  0  0
 15 16  4  0  0  0  0
 15 18  1  0  0  0  0
 16 17  4  0  0  0  0
 19 20  1  0  0  0  0
 22 23  4  0  0  0  0
 22 30  4  0  0  0  0
 23 24  4  0  0  0  0
 24 25  4  0  0  0  0
 25 26  1  0  0  0  0
 25 29  4  0  0  0  0
 26 27  1  0  0  0  0
 26 28  1  0  0  0  0
 29 30  4  0  0  0  0
M  CHG  3  26   1  27  -1  28  -1
M  END
>  <Name_Molregno>
382995

>  <Dopamine transporter>
6.85

>  <Norepinephrine transporter>
5.71

>  <Serotonin transporter>
5.79

$$$$
382996
  Marvin  02231216192D 0   1.00000     0.00000     0

 30 34  0  0  1  0  0  0  0  0999 V2000
    0.0296    1.4860    0.0000 S   0  0  0  0  0  0  0  0  0
    0.7271    1.9266    0.0000 C   0  0  0  0  0  0  0  0  0
    1.3616    1.3993    0.0000 C   0  0  0  0  0  0  0  0  0
    1.0563    0.6329    0.0000 N   0  0  0  0  0  0  0  0  0
    0.2330    0.6865    0.0000 C   0  0  0  0  0  0  0  0  0
   -0.2942    0.0520    0.0000 C   0  0  0  0  0  0  0  0  0
   -1.2230    0.0365    0.0000 C   0  0  0  0  0  0  0  0  0
   -1.7836    0.4764    0.0000 N   0  0  0  0  0  0  0  0  0
   -1.6439   -0.3367    0.0000 C   0  0  0  0  0  0  0  0  0
   -0.6722   -0.3367    0.0000 C   0  0  0  0  0  0  0  0  0
   -0.1560   -0.7654    0.0000 C   0  0  0  0  0  0  0  0  0
    0.2558   -1.4803    0.0000 C   0  0  0  0  0  0  0  0  0
    1.0808   -1.4811    0.0000 C   0  0  0  0  0  0  0  0  0
    1.4926   -2.1960    0.0000 C   0  0  0  0  0  0  0  0  0
    1.0793   -2.9101    0.0000 C   0  0  0  0  0  0  0  0  0
    0.2543   -2.9093    0.0000 C   0  0  0  0  0  0  0  0  0
   -0.1574   -2.1944    0.0000 C   0  0  0  0  0  0  0  0  0
    1.4911   -3.6250    0.0000 C   0  0  0  0  0  0  0  0  0
   -2.1638   -1.0490    0.0000 C   0  0  0  0  0  0  0  0  0
   -1.5435   -0.6721    0.0000 C   0  0  0  0  0  0  0  0  0
   -2.2062    1.1849    0.0000 C   0  0  0  0  0  0  0  0  0
    0.7807    2.7498    0.0000 C   0  0  0  0  0  0  0  0  0
    0.0945    3.2079    0.0000 C   0  0  0  0  0  0  0  0  0
    0.1481    4.0311    0.0000 C   0  0  0  0  0  0  0  0  0
   -0.5381    4.4891    0.0000 N   0  3  0  0  0  0  0  0  0
   -1.2778    4.1239    0.0000 O   0  5  0  0  0  0  0  0  0
   -0.4845    5.3124    0.0000 O   0  5  0  0  0  0  0  0  0
    0.8878    4.3963    0.0000 C   0  0  0  0  0  0  0  0  0
    1.5740    3.9383    0.0000 C   0  0  0  0  0  0  0  0  0
    1.5204    3.1150    0.0000 C   0  0  0  0  0  0  0  0  0
  1  2  4  0  0  0  0
  1  5  4  0  0  0  0
  2  3  4  0  0  0  0
  2 22  1  0  0  0  0
  3  4  4  0  0  0  0
  4  5  4  0  0  0  0
  5  6  1  0  0  0  0
  6  7  1  0  0  0  0
  6 11  1  0  0  0  0
  7  8  1  0  0  0  0
  7 20  1  0  0  0  0
  8  9  1  0  0  0  0
  8 21  1  0  0  0  0
  9 10  1  0  0  0  0
  9 19  1  0  0  0  0
 10 11  1  0  0  0  0
 11 12  1  0  0  0  0
 12 13  4  0  0  0  0
 12 17  4  0  0  0  0
 13 14  4  0  0  0  0
 14 15  4  0  0  0  0
 15 16  4  0  0  0  0
 15 18  1  0  0  0  0
 16 17  4  0  0  0  0
 19 20  1  0  0  0  0
 22 23  4  0  0  0  0
 22 30  4  0  0  0  0
 23 24  4  0  0  0  0
 24 25  1  0  0  0  0
 24 28  4  0  0  0  0
 25 26  1  0  0  0  0
 25 27  1  0  0  0  0
 28 29  4  0  0  0  0
 29 30  4  0  0  0  0
M  CHG  3  25   1  26  -1  27  -1
M  END
>  <Name_Molregno>
382996

>  <Dopamine transporter>
7.85

>  <Norepinephrine transporter>
6

>  <Serotonin transporter>
6.24

$$$$
383010
  Marvin  02231216192D 0   1.00000     0.00000     0

 29 33  0  0  1  0  0  0  0  0999 V2000
   -0.0564    1.4223    0.0000 S   0  0  0  0  0  0  0  0  0
    0.6411    1.8628    0.0000 C   0  0  0  0  0  0  0  0  0
    1.2757    1.3356    0.0000 C   0  0  0  0  0  0  0  0  0
    0.9703    0.5692    0.0000 N   0  0  0  0  0  0  0  0  0
    0.1471    0.6227    0.0000 C   0  0  0  0  0  0  0  0  0
   -0.3802   -0.0118    0.0000 C   0  0  0  0  0  0  0  0  0
   -1.3090   -0.0273    0.0000 C   0  0  0  0  0  0  0  0  0
   -1.8696    0.4126    0.0000 N   0  0  0  0  0  0  0  0  0
   -1.7299   -0.4005    0.0000 C   0  0  0  0  0  0  0  0  0
   -0.7582   -0.4005    0.0000 C   0  0  0  0  0  0  0  0  0
   -0.2420   -0.8292    0.0000 C   0  0  0  0  0  0  0  0  0
    0.1698   -1.5441    0.0000 C   0  0  0  0  0  0  0  0  0
    0.9948   -1.5449    0.0000 C   0  0  0  0  0  0  0  0  0
    1.4066   -2.2598    0.0000 C   0  0  0  0  0  0  0  0  0
    0.9934   -2.9738    0.0000 C   0  0  0  0  0  0  0  0  0
    0.1684   -2.9730    0.0000 C   0  0  0  0  0  0  0  0  0
   -0.2434   -2.2581    0.0000 C   0  0  0  0  0  0  0  0  0
    1.4052   -3.6887    0.0000 C   0  0  0  0  0  0  0  0  0
   -2.2498   -1.1128    0.0000 C   0  0  0  0  0  0  0  0  0
   -1.6295   -0.7359    0.0000 C   0  0  0  0  0  0  0  0  0
   -2.2922    1.1211    0.0000 C   0  0  0  0  0  0  0  0  0
    0.6947    2.6861    0.0000 C   0  0  0  0  0  0  0  0  0
    0.0085    3.1441    0.0000 C   0  0  0  0  0  0  0  0  0
    0.0621    3.9674    0.0000 C   0  0  0  0  0  0  0  0  0
    0.8019    4.3326    0.0000 C   0  0  0  0  0  0  0  0  0
    0.8555    5.1558    0.0000 O   0  0  0  0  0  0  0  0  0
    0.1693    5.6139    0.0000 C   0  0  0  0  0  0  0  0  0
    1.4881    3.8746    0.0000 C   0  0  0  0  0  0  0  0  0
    1.4345    3.0513    0.0000 C   0  0  0  0  0  0  0  0  0
  1  2  4  0  0  0  0
  1  5  4  0  0  0  0
  2  3  4  0  0  0  0
  2 22  1  0  0  0  0
  3  4  4  0  0  0  0
  4  5  4  0  0  0  0
  5  6  1  0  0  0  0
  6  7  1  0  0  0  0
  6 11  1  0  0  0  0
  7  8  1  0  0  0  0
  7 20  1  0  0  0  0
  8  9  1  0  0  0  0
  8 21  1  0  0  0  0
  9 10  1  0  0  0  0
  9 19  1  0  0  0  0
 10 11  1  0  0  0  0
 11 12  1  0  0  0  0
 12 13  4  0  0  0  0
 12 17  4  0  0  0  0
 13 14  4  0  0  0  0
 14 15  4  0  0  0  0
 15 16  4  0  0  0  0
 15 18  1  0  0  0  0
 16 17  4  0  0  0  0
 19 20  1  0  0  0  0
 22 23  4  0  0  0  0
 22 29  4  0  0  0  0
 23 24  4  0  0  0  0
 24 25  4  0  0  0  0
 25 26  1  0  0  0  0
 25 28  4  0  0  0  0
 26 27  1  0  0  0  0
 28 29  4  0  0  0  0
M  END
>  <Name_Molregno>
383010

>  <Dopamine transporter>
7.28

>  <Norepinephrine transporter>
5.44

>  <Serotonin transporter>
5.44

$$$$
383011
  Marvin  02231216192D 0   1.00000     0.00000     0

 29 33  0  0  1  0  0  0  0  0999 V2000
    6.2182   -0.8264    0.0000 Cl  0  0  0  0  0  0  0  0  0
    5.6423   -0.2357    0.0000 C   0  0  0  0  0  0  0  0  0
    4.8428   -0.4391    0.0000 C   0  0  0  0  0  0  0  0  0
    4.2668    0.1515    0.0000 C   0  0  0  0  0  0  0  0  0
    4.4904    0.9457    0.0000 C   0  0  0  0  0  0  0  0  0
    5.2899    1.1491    0.0000 C   0  0  0  0  0  0  0  0  0
    5.8659    0.5584    0.0000 C   0  0  0  0  0  0  0  0  0
    6.6654    0.7619    0.0000 Cl  0  0  0  0  0  0  0  0  0
    3.4673   -0.0519    0.0000 C   0  0  0  0  0  0  0  0  0
    3.1620   -0.8183    0.0000 S   0  0  0  0  0  0  0  0  0
    2.3387   -0.7647    0.0000 C   0  0  0  0  0  0  0  0  0
    2.1352    0.0348    0.0000 N   0  0  0  0  0  0  0  0  0
    2.8328    0.4753    0.0000 C   0  0  0  0  0  0  0  0  0
    1.8114   -1.3993    0.0000 C   0  0  0  0  0  0  0  0  0
    0.8826   -1.4148    0.0000 C   0  0  0  0  0  0  0  0  0
    0.3220   -0.9749    0.0000 N   0  0  0  0  0  0  0  0  0
    0.4617   -1.7880    0.0000 C   0  0  0  0  0  0  0  0  0
    1.4334   -1.7880    0.0000 C   0  0  0  0  0  0  0  0  0
    1.9496   -2.2167    0.0000 C   0  0  0  0  0  0  0  0  0
    2.3614   -2.9315    0.0000 C   0  0  0  0  0  0  0  0  0
    3.1864   -2.9324    0.0000 C   0  0  0  0  0  0  0  0  0
    3.5982   -3.6472    0.0000 C   0  0  0  0  0  0  0  0  0
    3.1850   -4.3613    0.0000 C   0  0  0  0  0  0  0  0  0
    2.3600   -4.3605    0.0000 C   0  0  0  0  0  0  0  0  0
    1.9482   -3.6456    0.0000 C   0  0  0  0  0  0  0  0  0
    3.5968   -5.0762    0.0000 C   0  0  0  0  0  0  0  0  0
   -0.0582   -2.5003    0.0000 C   0  0  0  0  0  0  0  0  0
    0.5621   -2.1234    0.0000 C   0  0  0  0  0  0  0  0  0
   -0.1006   -0.2663    0.0000 C   0  0  0  0  0  0  0  0  0
  1  2  1  0  0  0  0
  2  3  4  0  0  0  0
  2  7  4  0  0  0  0
  3  4  4  0  0  0  0
  4  5  4  0  0  0  0
  4  9  1  0  0  0  0
  5  6  4  0  0  0  0
  6  7  4  0  0  0  0
  7  8  1  0  0  0  0
  9 10  4  0  0  0  0
  9 13  4  0  0  0  0
 10 11  4  0  0  0  0
 11 12  4  0  0  0  0
 11 14  1  0  0  0  0
 12 13  4  0  0  0  0
 14 15  1  0  0  0  0
 14 19  1  0  0  0  0
 15 16  1  0  0  0  0
 15 28  1  0  0  0  0
 16 17  1  0  0  0  0
 16 29  1  0  0  0  0
 17 18  1  0  0  0  0
 17 27  1  0  0  0  0
 18 19  1  0  0  0  0
 19 20  1  0  0  0  0
 20 21  4  0  0  0  0
 20 25  4  0  0  0  0
 21 22  4  0  0  0  0
 22 23  4  0  0  0  0
 23 24  4  0  0  0  0
 23 26  1  0  0  0  0
 24 25  4  0  0  0  0
 27 28  1  0  0  0  0
M  END
>  <Name_Molregno>
383011

>  <Dopamine transporter>
6.98

>  <Norepinephrine transporter>
5.21

>  <Serotonin transporter>
5.53

$$$$
383012
  Marvin  02231216192D 0   1.00000     0.00000     0

 31 35  0  0  1  0  0  0  0  0999 V2000
   -0.2000    1.2243    0.0000 S   0  0  0  0  0  0  0  0  0
    0.4975    1.6648    0.0000 C   0  0  0  0  0  0  0  0  0
    1.1320    1.1376    0.0000 C   0  0  0  0  0  0  0  0  0
    0.8267    0.3712    0.0000 N   0  0  0  0  0  0  0  0  0
    0.0034    0.4248    0.0000 C   0  0  0  0  0  0  0  0  0
   -0.5239   -0.2098    0.0000 C   0  0  0  0  0  0  0  0  0
   -1.4527   -0.2253    0.0000 C   0  0  0  0  0  0  0  0  0
   -2.0133    0.2146    0.0000 N   0  0  0  0  0  0  0  0  0
   -1.8736   -0.5985    0.0000 C   0  0  0  0  0  0  0  0  0
   -0.9019   -0.5985    0.0000 C   0  0  0  0  0  0  0  0  0
   -0.3857   -1.0272    0.0000 C   0  0  0  0  0  0  0  0  0
    0.0261   -1.7421    0.0000 C   0  0  0  0  0  0  0  0  0
    0.8511   -1.7429    0.0000 C   0  0  0  0  0  0  0  0  0
    1.2629   -2.4577    0.0000 C   0  0  0  0  0  0  0  0  0
    0.8497   -3.1718    0.0000 C   0  0  0  0  0  0  0  0  0
    0.0247   -3.1710    0.0000 C   0  0  0  0  0  0  0  0  0
   -0.3871   -2.4561    0.0000 C   0  0  0  0  0  0  0  0  0
    1.2615   -3.8867    0.0000 C   0  0  0  0  0  0  0  0  0
   -2.3935   -1.3108    0.0000 C   0  0  0  0  0  0  0  0  0
   -1.7732   -0.9339    0.0000 C   0  0  0  0  0  0  0  0  0
   -2.4359    0.9232    0.0000 C   0  0  0  0  0  0  0  0  0
    0.5511    2.4881    0.0000 C   0  0  0  0  0  0  0  0  0
   -0.1351    2.9461    0.0000 C   0  0  0  0  0  0  0  0  0
   -0.0815    3.7694    0.0000 C   0  0  0  0  0  0  0  0  0
   -0.7677    4.2274    0.0000 O   0  0  0  0  0  0  0  0  0
   -0.7141    5.0507    0.0000 C   0  0  0  0  0  0  0  0  0
    0.6582    4.1346    0.0000 C   0  0  0  0  0  0  0  0  0
    0.7118    4.9579    0.0000 O   0  0  0  0  0  0  0  0  0
    0.0256    5.4159    0.0000 C   0  0  0  0  0  0  0  0  0
    1.3444    3.6766    0.0000 C   0  0  0  0  0  0  0  0  0
    1.2908    2.8533    0.0000 C   0  0  0  0  0  0  0  0  0
  1  2  4  0  0  0  0
  1  5  4  0  0  0  0
  2  3  4  0  0  0  0
  2 22  1  0  0  0  0
  3  4  4  0  0  0  0
  4  5  4  0  0  0  0
  5  6  1  0  0  0  0
  6  7  1  0  0  0  0
  6 11  1  0  0  0  0
  7  8  1  0  0  0  0
  7 20  1  0  0  0  0
  8  9  1  0  0  0  0
  8 21  1  0  0  0  0
  9 10  1  0  0  0  0
  9 19  1  0  0  0  0
 10 11  1  0  0  0  0
 11 12  1  0  0  0  0
 12 13  4  0  0  0  0
 12 17  4  0  0  0  0
 13 14  4  0  0  0  0
 14 15  4  0  0  0  0
 15 16  4  0  0  0  0
 15 18  1  0  0  0  0
 16 17  4  0  0  0  0
 19 20  1  0  0  0  0
 22 23  4  0  0  0  0
 22 31  4  0  0  0  0
 23 24  4  0  0  0  0
 24 25  1  0  0  0  0
 24 27  4  0  0  0  0
 25 26  1  0  0  0  0
 27 28  1  0  0  0  0
 27 30  4  0  0  0  0
 28 29  1  0  0  0  0
 30 31  4  0  0  0  0
M  END
>  <Name_Molregno>
383012

>  <Dopamine transporter>
6.28

>  <Norepinephrine transporter>
5.86

>  <Serotonin transporter>
5.11

$$$$
387941
  Marvin  02231216192D 0   1.00000     0.00000     0

 15 16  0  0  1  0  0  0  0  0999 V2000
    1.0445   -1.8406    0.0000 N   0  0  0  0  0  0  0  0  0
    0.7895   -2.6253    0.0000 C   0  0  0  0  0  0  0  0  0
   -0.0355   -2.6253    0.0000 N   0  0  0  0  0  0  0  0  0
   -0.2904   -1.8406    0.0000 C   0  0  0  0  0  0  0  0  0
    0.3770   -1.3557    0.0000 C   0  0  0  0  0  0  0  0  0
    0.3770   -0.5307    0.0000 C   0  0  0  0  0  0  0  0  0
   -0.3375   -0.1182    0.0000 C   0  0  0  0  0  0  0  0  0
    1.0915   -0.1182    0.0000 C   0  0  0  0  0  0  0  0  0
    1.0915    0.7068    0.0000 C   0  0  0  0  0  0  0  0  0
    1.8060    1.1193    0.0000 C   0  0  0  0  0  0  0  0  0
    2.5204    0.7068    0.0000 C   0  0  0  0  0  0  0  0  0
    2.5204   -0.1182    0.0000 C   0  0  0  0  0  0  0  0  0
    3.2349   -0.5307    0.0000 C   0  0  0  0  0  0  0  0  0
    1.8060   -0.5307    0.0000 C   0  0  0  0  0  0  0  0  0
    1.8060   -1.3557    0.0000 C   0  0  0  0  0  0  0  0  0
  1  2  4  0  0  0  0
  1  5  4  0  0  0  0
  2  3  4  0  0  0  0
  3  4  4  0  0  0  0
  4  5  4  0  0  0  0
  5  6  1  0  0  0  0
  6  7  1  0  0  0  0
  6  8  1  0  0  0  0
  8  9  4  0  0  0  0
  8 14  4  0  0  0  0
  9 10  4  0  0  0  0
 10 11  4  0  0  0  0
 11 12  4  0  0  0  0
 12 13  1  0  0  0  0
 12 14  4  0  0  0  0
 14 15  1  0  0  0  0
M  STY  1   1 DAT
M  SAL   1  1   1
M  SDT   1 MRV_IMPLICIT_H                                        
M  SDD   1     0.0000    0.0000    DR    ALL  0       0  
M  SED   1 IMPL_H1
M  END
>  <Name_Molregno>
387941

>  <Alpha-1A>
6.7

>  <Alpha-1B>
6.5

>  <Alpha-2A>
8.22

>  <Alpha-2B>
7.96

>  <Alpha-2C>
7.74

>  <Norepinephrine transporter>
6

$$$$
388386
  Marvin  02231216192D 0   1.00000     0.00000     0

 23 25  0  0  1  0  0  0  0  0999 V2000
    6.8440   -4.4168    0.0000 I   0  0  0  0  0  0  0  0  0
    6.4322   -3.7019    0.0000 C   0  0  0  0  0  0  0  0  0
    5.6072   -3.7011    0.0000 C   0  0  0  0  0  0  0  0  0
    5.1954   -2.9862    0.0000 C   0  0  0  0  0  0  0  0  0
    4.3704   -2.9854    0.0000 C   0  0  0  0  0  0  0  0  0
    3.9586   -2.2705    0.0000 C   0  0  0  0  0  0  0  0  0
    4.3718   -1.5565    0.0000 C   0  0  0  0  0  0  0  0  0
    5.1968   -1.5573    0.0000 C   0  0  0  0  0  0  0  0  0
    5.6086   -2.2722    0.0000 C   0  0  0  0  0  0  0  0  0
    3.9600   -0.8416    0.0000 C   0  0  0  0  0  0  0  0  0
    3.8218   -0.0242    0.0000 C   0  0  0  0  0  0  0  0  0
    2.8930   -0.0397    0.0000 C   0  0  0  0  0  0  0  0  0
    2.3324    0.4002    0.0000 N   0  0  0  0  0  0  0  0  0
    2.4721   -0.4129    0.0000 C   0  0  0  0  0  0  0  0  0
    1.9522   -1.1252    0.0000 C   0  0  0  0  0  0  0  0  0
    2.5725   -0.7483    0.0000 C   0  0  0  0  0  0  0  0  0
    3.4438   -0.4129    0.0000 C   0  0  0  0  0  0  0  0  0
    3.5957    0.5948    0.0000 C   0  0  0  0  0  0  0  0  0
    4.3796    0.9429    0.0000 O   0  0  0  0  0  0  0  0  0
    5.0099    1.4835    0.0000 C   0  0  0  0  0  0  0  0  0
    5.8228    1.5628    0.0000 C   0  0  0  0  0  0  0  0  0
    6.1640    2.3139    0.0000 F   0  0  0  0  0  0  0  0  0
    3.4026    1.4601    0.0000 O   0  0  0  0  0  0  0  0  0
  1  2  1  0  0  0  0
  2  3  2  0  0  0  0
  3  4  1  0  0  0  0
  4  5  4  0  0  0  0
  4  9  4  0  0  0  0
  5  6  4  0  0  0  0
  6  7  4  0  0  0  0
  7  8  4  0  0  0  0
  7 10  1  0  0  0  0
  8  9  4  0  0  0  0
 10 11  1  0  0  0  0
 10 17  1  0  0  0  0
 11 12  1  0  0  0  0
 12 13  1  0  0  0  0
 12 16  1  0  0  0  0
 13 14  1  0  0  0  0
 14 15  1  0  0  0  0
 14 17  1  0  0  0  0
 15 16  1  0  0  0  0
 17 18  1  0  0  0  0
 18 19  1  0  0  0  0
 18 23  2  0  0  0  0
 19 20  1  0  0  0  0
 20 21  1  0  0  0  0
 21 22  1  0  0  0  0
M  END
>  <Name_Molregno>
388386

>  <Dopamine transporter>
7.89

>  <Norepinephrine transporter>
7.55

>  <Serotonin transporter>
10.1

$$$$
389011
  Marvin  02231216192D 0   1.00000     0.00000     0

 25 26  0  0  1  0  0  0  0  0999 V2000
   -2.9244    1.8604    0.0000 S   0  0  0  0  0  0  0  0  0
   -3.7494    1.8604    0.0000 O   0  0  0  0  0  0  0  0  0
   -2.0994    1.8604    0.0000 O   0  0  0  0  0  0  0  0  0
   -2.9244    2.6854    0.0000 C   0  0  0  0  0  0  0  0  0
   -3.6388    3.0979    0.0000 C   0  0  0  0  0  0  0  0  0
   -2.9244    1.0354    0.0000 C   0  0  0  0  0  0  0  0  0
   -2.2099    0.6229    0.0000 C   0  0  0  0  0  0  0  0  0
   -2.2099   -0.2021    0.0000 C   0  0  0  0  0  0  0  0  0
   -1.4954   -0.6146    0.0000 C   0  0  0  0  0  0  0  0  0
   -0.7810   -0.2021    0.0000 O   0  0  0  0  0  0  0  0  0
   -1.4954   -1.4396    0.0000 N   0  0  0  0  0  0  0  0  0
   -0.7810   -1.8521    0.0000 C   0  0  0  0  0  0  0  0  0
   -0.7810   -2.6771    0.0000 C   0  0  0  0  0  0  0  0  0
   -0.1135   -3.1620    0.0000 N   0  0  0  0  0  0  0  0  0
   -0.3685   -3.9466    0.0000 C   0  0  0  0  0  0  0  0  0
   -1.1935   -3.9466    0.0000 C   0  0  0  0  0  0  0  0  0
   -1.4484   -3.1620    0.0000 C   0  0  0  0  0  0  0  0  0
    0.6711   -2.9071    0.0000 C   0  0  0  0  0  0  0  0  0
    1.2842   -3.4591    0.0000 C   0  0  0  0  0  0  0  0  0
   -2.9244   -0.6146    0.0000 C   0  0  0  0  0  0  0  0  0
   -2.9244   -1.4396    0.0000 O   0  0  0  0  0  0  0  0  0
   -3.6388   -1.8521    0.0000 C   0  0  0  0  0  0  0  0  0
   -3.6388   -0.2021    0.0000 C   0  0  0  0  0  0  0  0  0
   -3.6388    0.6229    0.0000 C   0  0  0  0  0  0  0  0  0
   -4.3533    1.0354    0.0000 N   0  0  0  0  0  0  0  0  0
  1  2  2  0  0  0  0
  1  3  2  0  0  0  0
  1  4  1  0  0  0  0
  1  6  1  0  0  0  0
  4  5  1  0  0  0  0
  6  7  4  0  0  0  0
  6 24  4  0  0  0  0
  7  8  4  0  0  0  0
  8  9  1  0  0  0  0
  8 20  4  0  0  0  0
  9 10  2  0  0  0  0
  9 11  1  0  0  0  0
 11 12  1  0  0  0  0
 12 13  1  0  0  0  0
 13 14  1  0  0  0  0
 13 17  1  0  0  0  0
 14 15  1  0  0  0  0
 14 18  1  0  0  0  0
 15 16  1  0  0  0  0
 16 17  1  0  0  0  0
 18 19  1  0  0  0  0
 20 21  1  0  0  0  0
 20 23  4  0  0  0  0
 21 22  1  0  0  0  0
 23 24  4  0  0  0  0
 24 25  1  0  0  0  0
M  END
>  <Name_Molregno>
389011

>  <5-HT1A>
5

>  <5-HT1B>
5.76

>  <5-HT1D>
5.87

>  <5-HT1E>
5

>  <5-HT2A>
5.64

>  <5-HT2C>
5

>  <5-HT3>
5

>  <5-HT5>
5

>  <5-HT6>
5.38

>  <5-HT7>
7.47

>  <Alpha-1A>
5

>  <Alpha-1B>
5

>  <Alpha-2A>
5.95

>  <Alpha-2C>
5.81

>  <Beta-1>
5

>  <Beta-2>
5

>  <DOPAMINE D1>
5

>  <DOPAMINE D2>
8.71

>  <DOPAMINE D3>
8.51

>  <DOPAMINE D4>
5.63

>  <DOPAMINE D5>
5

>  <Dopamine transporter>
5

>  <HISTAMINE H1>
5

>  <HISTAMINE H2>
5

>  <HISTAMINE H4>
5

>  <Muscarinic acetylcholine receptor M1>
5

>  <Muscarinic acetylcholine receptor M2>
5

>  <Muscarinic acetylcholine receptor M3>
5

>  <Muscarinic acetylcholine receptor M4>
5

>  <Muscarinic acetylcholine receptor M5>
5

>  <Norepinephrine transporter>
5

>  <Serotonin transporter>
5

$$$$
392077
  Marvin  02231216192D 0   1.00000     0.00000     0

 19 20  0  0  1  0  0  0  0  0999 V2000
    1.1314    0.7444    0.0000 Cl  0  0  0  0  0  0  0  0  0
    1.1314   -0.0806    0.0000 C   0  0  0  0  0  0  0  0  0
    1.8459   -0.4931    0.0000 C   0  0  0  0  0  0  0  0  0
    1.8459   -1.3181    0.0000 C   0  0  0  0  0  0  0  0  0
    1.1314   -1.7306    0.0000 C   0  0  0  0  0  0  0  0  0
    0.4169   -1.3181    0.0000 C   0  0  0  0  0  0  0  0  0
    0.4169   -0.4931    0.0000 C   0  0  0  0  0  0  0  0  0
   -0.2975   -0.0806    0.0000 Cl  0  0  0  0  0  0  0  0  0
    2.5603   -1.7306    0.0000 C   0  0  0  0  0  0  0  0  0
    3.2748   -1.3181    0.0000 C   0  0  0  0  0  0  0  0  0
    3.9893   -1.7306    0.0000 C   0  0  0  0  0  0  0  0  0
    3.9893   -2.5556    0.0000 N   0  0  0  0  0  0  0  0  0
    3.2748   -2.9681    0.0000 C   0  0  0  0  0  0  0  0  0
    2.5603   -2.5556    0.0000 C   0  0  0  0  0  0  0  0  0
    1.8459   -2.9681    0.0000 C   0  0  0  0  0  0  0  0  0
    1.1314   -2.5556    0.0000 O   0  0  0  0  0  0  0  0  0
    0.4169   -2.9681    0.0000 C   0  0  0  0  0  0  0  0  0
    1.8459   -3.7931    0.0000 O   0  0  0  0  0  0  0  0  0
    4.7038   -2.9681    0.0000 C   0  0  0  0  0  0  0  0  0
  1  2  1  0  0  0  0
  2  3  4  0  0  0  0
  2  7  4  0  0  0  0
  3  4  4  0  0  0  0
  4  5  4  0  0  0  0
  4  9  1  0  0  0  0
  5  6  4  0  0  0  0
  6  7  4  0  0  0  0
  7  8  1  0  0  0  0
  9 10  1  0  0  0  0
  9 14  1  0  0  0  0
 10 11  1  0  0  0  0
 11 12  1  0  0  0  0
 12 13  1  0  0  0  0
 12 19  1  0  0  0  0
 13 14  1  0  0  0  0
 14 15  1  0  0  0  0
 15 16  1  0  0  0  0
 15 18  2  0  0  0  0
 16 17  1  0  0  0  0
M  END
>  <Name_Molregno>
392077

>  <Dopamine transporter>
5.36

>  <Norepinephrine transporter>
4.89

>  <Serotonin transporter>
5.3

$$$$
392083
  Marvin  02231216192D 0   1.00000     0.00000     0

 17 18  0  0  1  0  0  0  0  0999 V2000
    0.5764   -0.4695    0.0000 O   0  0  0  0  0  0  0  0  0
    1.2908   -0.8820    0.0000 C   0  0  0  0  0  0  0  0  0
    2.0053   -0.4695    0.0000 O   0  0  0  0  0  0  0  0  0
    1.2908   -1.7070    0.0000 C   0  0  0  0  0  0  0  0  0
    2.0053   -2.1195    0.0000 C   0  0  0  0  0  0  0  0  0
    2.0053   -2.9445    0.0000 N   0  0  0  0  0  0  0  0  0
    1.2908   -3.3570    0.0000 C   0  0  0  0  0  0  0  0  0
    0.5764   -2.9445    0.0000 C   0  0  0  0  0  0  0  0  0
    0.5764   -2.1195    0.0000 C   0  0  0  0  0  0  0  0  0
   -0.1381   -1.7070    0.0000 C   0  0  0  0  0  0  0  0  0
   -0.8526   -2.1195    0.0000 C   0  0  0  0  0  0  0  0  0
   -1.5670   -1.7070    0.0000 C   0  0  0  0  0  0  0  0  0
   -1.5670   -0.8820    0.0000 C   0  0  0  0  0  0  0  0  0
   -0.8526   -0.4695    0.0000 C   0  0  0  0  0  0  0  0  0
   -0.1381   -0.8820    0.0000 C   0  0  0  0  0  0  0  0  0
    2.7198   -3.3570    0.0000 C   0  0  0  0  0  0  0  0  0
    0.5764    0.3555    0.0000 C   0  0  0  0  0  0  0  0  0
  1  2  1  0  0  0  0
  1 17  1  0  0  0  0
  2  3  2  0  0  0  0
  2  4  1  0  0  0  0
  4  5  1  0  0  0  0
  4  9  1  0  0  0  0
  5  6  1  0  0  0  0
  6  7  1  0  0  0  0
  6 16  1  0  0  0  0
  7  8  1  0  0  0  0
  8  9  1  0  0  0  0
  9 10  1  0  0  0  0
 10 11  4  0  0  0  0
 10 15  4  0  0  0  0
 11 12  4  0  0  0  0
 12 13  4  0  0  0  0
 13 14  4  0  0  0  0
 14 15  4  0  0  0  0
M  END
>  <Name_Molregno>
392083

>  <Dopamine transporter>
4.92

>  <Norepinephrine transporter>
4.44

>  <Serotonin transporter>
4.45

$$$$
392092
  Marvin  02231216192D 0   1.00000     0.00000     0

 21 23  0  0  0  0  0  0  0  0999 V2000
    2.1581   -1.6901    0.0000 O   0  0  0  0  0  0  0  0  0
    1.4436   -2.1026    0.0000 C   0  0  0  0  0  0  0  0  0
    1.4436   -2.9276    0.0000 O   0  0  0  0  0  0  0  0  0
    0.7291   -1.6901    0.0000 C   0  0  0  0  0  0  0  0  0
    0.0146   -2.1026    0.0000 C   0  0  0  0  0  0  0  0  0
   -0.6998   -1.6901    0.0000 N   0  0  0  0  0  0  0  0  0
   -0.6998   -0.8651    0.0000 C   0  0  0  0  0  0  0  0  0
    0.0146   -0.4526    0.0000 C   0  0  0  0  0  0  0  0  0
    0.7291   -0.8651    0.0000 C   0  0  0  0  0  0  0  0  0
    1.4436   -0.4526    0.0000 C   0  0  0  0  0  0  0  0  0
    2.1581   -0.8651    0.0000 C   0  0  0  0  0  0  0  0  0
    2.8725   -0.4526    0.0000 C   0  0  0  0  0  0  0  0  0
    2.8725    0.3724    0.0000 C   0  0  0  0  0  0  0  0  0
    2.1581    0.7849    0.0000 C   0  0  0  0  0  0  0  0  0
    1.4436    0.3724    0.0000 C   0  0  0  0  0  0  0  0  0
    3.5870    0.7849    0.0000 C   0  0  0  0  0  0  0  0  0
    4.3015    0.3724    0.0000 C   0  0  0  0  0  0  0  0  0
    4.3015   -0.4526    0.0000 C   0  0  0  0  0  0  0  0  0
    3.5870   -0.8651    0.0000 C   0  0  0  0  0  0  0  0  0
    2.8725   -2.1026    0.0000 C   0  0  0  0  0  0  0  0  0
    3.5870   -1.6901    0.0000 C   0  0  0  0  0  0  0  0  0
  1  2  1  0  0  0  0
  1 20  1  0  0  0  0
  2  3  2  0  0  0  0
  2  4  1  0  0  0  0
  4  5  1  0  0  0  0
  4  9  2  0  0  0  0
  5  6  1  0  0  0  0
  6  7  1  0  0  0  0
  7  8  1  0  0  0  0
  8  9  1  0  0  0  0
  9 10  1  0  0  0  0
 10 11  4  0  0  0  0
 10 15  4  0  0  0  0
 11 12  4  0  0  0  0
 12 13  4  0  0  0  0
 12 19  4  0  0  0  0
 13 14  4  0  0  0  0
 13 16  4  0  0  0  0
 14 15  4  0  0  0  0
 16 17  4  0  0  0  0
 17 18  4  0  0  0  0
 18 19  4  0  0  0  0
 20 21  1  0  0  0  0
M  END
>  <Name_Molregno>
392092

>  <Dopamine transporter>
7.1

>  <Norepinephrine transporter>
6.57

>  <Serotonin transporter>
6.36

$$$$
392093
  Marvin  02231216192D 0   1.00000     0.00000     0

 19 20  0  0  0  0  0  0  0  0999 V2000
    1.9041    1.9938    0.0000 Cl  0  0  0  0  0  0  0  0  0
    1.9041    1.1688    0.0000 C   0  0  0  0  0  0  0  0  0
    2.6186    0.7563    0.0000 C   0  0  0  0  0  0  0  0  0
    2.6186   -0.0687    0.0000 C   0  0  0  0  0  0  0  0  0
    1.9041   -0.4812    0.0000 C   0  0  0  0  0  0  0  0  0
    1.1897   -0.0687    0.0000 C   0  0  0  0  0  0  0  0  0
    1.1897    0.7563    0.0000 C   0  0  0  0  0  0  0  0  0
    0.4752    1.1688    0.0000 Cl  0  0  0  0  0  0  0  0  0
    3.3331   -0.4812    0.0000 C   0  0  0  0  0  0  0  0  0
    4.0476   -0.0687    0.0000 C   0  0  0  0  0  0  0  0  0
    4.7620   -0.4812    0.0000 C   0  0  0  0  0  0  0  0  0
    4.7620   -1.3062    0.0000 N   0  0  0  0  0  0  0  0  0
    4.0476   -1.7187    0.0000 C   0  0  0  0  0  0  0  0  0
    3.3331   -1.3062    0.0000 C   0  0  0  0  0  0  0  0  0
    2.6186   -1.7187    0.0000 C   0  0  0  0  0  0  0  0  0
    2.6186   -2.5437    0.0000 O   0  0  0  0  0  0  0  0  0
    1.9041   -2.9562    0.0000 C   0  0  0  0  0  0  0  0  0
    1.9041   -3.7812    0.0000 C   0  0  0  0  0  0  0  0  0
    1.9041   -1.3062    0.0000 O   0  0  0  0  0  0  0  0  0
  1  2  1  0  0  0  0
  2  3  4  0  0  0  0
  2  7  4  0  0  0  0
  3  4  4  0  0  0  0
  4  5  4  0  0  0  0
  4  9  1  0  0  0  0
  5  6  4  0  0  0  0
  6  7  4  0  0  0  0
  7  8  1  0  0  0  0
  9 10  1  0  0  0  0
  9 14  2  0  0  0  0
 10 11  1  0  0  0  0
 11 12  1  0  0  0  0
 12 13  1  0  0  0  0
 13 14  1  0  0  0  0
 14 15  1  0  0  0  0
 15 16  1  0  0  0  0
 15 19  2  0  0  0  0
 16 17  1  0  0  0  0
 17 18  1  0  0  0  0
M  END
>  <Name_Molregno>
392093

>  <Dopamine transporter>
6.04

>  <Norepinephrine transporter>
5.6

>  <Serotonin transporter>
6.66

$$$$
392095
  Marvin  02231216192D 0   1.00000     0.00000     0

 20 21  0  0  0  0  0  0  0  0999 V2000
    2.6563    1.0397    0.0000 O   0  0  0  0  0  0  0  0  0
    3.3708    0.6272    0.0000 C   0  0  0  0  0  0  0  0  0
    4.0852    1.0397    0.0000 O   0  0  0  0  0  0  0  0  0
    3.3708   -0.1978    0.0000 C   0  0  0  0  0  0  0  0  0
    4.0852   -0.6103    0.0000 C   0  0  0  0  0  0  0  0  0
    4.0852   -1.4353    0.0000 N   0  0  0  0  0  0  0  0  0
    3.3708   -1.8478    0.0000 C   0  0  0  0  0  0  0  0  0
    2.6563   -1.4353    0.0000 C   0  0  0  0  0  0  0  0  0
    2.6563   -0.6103    0.0000 C   0  0  0  0  0  0  0  0  0
    1.9418   -0.1978    0.0000 C   0  0  0  0  0  0  0  0  0
    1.2274   -0.6103    0.0000 C   0  0  0  0  0  0  0  0  0
    0.5129   -0.1978    0.0000 C   0  0  0  0  0  0  0  0  0
   -0.2016   -0.6103    0.0000 N   0  3  0  0  0  0  0  0  0
   -0.9161   -0.1978    0.0000 O   0  5  0  0  0  0  0  0  0
   -0.2016   -1.4353    0.0000 O   0  5  0  0  0  0  0  0  0
    0.5129    0.6272    0.0000 C   0  0  0  0  0  0  0  0  0
    1.2274    1.0397    0.0000 C   0  0  0  0  0  0  0  0  0
    1.9418    0.6272    0.0000 C   0  0  0  0  0  0  0  0  0
    2.6563    1.8647    0.0000 C   0  0  0  0  0  0  0  0  0
    1.9418    2.2772    0.0000 C   0  0  0  0  0  0  0  0  0
  1  2  1  0  0  0  0
  1 19  1  0  0  0  0
  2  3  2  0  0  0  0
  2  4  1  0  0  0  0
  4  5  1  0  0  0  0
  4  9  2  0  0  0  0
  5  6  1  0  0  0  0
  6  7  1  0  0  0  0
  7  8  1  0  0  0  0
  8  9  1  0  0  0  0
  9 10  1  0  0  0  0
 10 11  4  0  0  0  0
 10 18  4  0  0  0  0
 11 12  4  0  0  0  0
 12 13  1  0  0  0  0
 12 16  4  0  0  0  0
 13 14  1  0  0  0  0
 13 15  1  0  0  0  0
 16 17  4  0  0  0  0
 17 18  4  0  0  0  0
 19 20  1  0  0  0  0
M  CHG  3  13   1  14  -1  15  -1
M  END
>  <Name_Molregno>
392095

>  <Dopamine transporter>
4.69

>  <Norepinephrine transporter>
5

>  <Serotonin transporter>
5.52

$$$$
392097
  Marvin  02231216192D 0   1.00000     0.00000     0

 17 18  0  0  0  0  0  0  0  0999 V2000
    4.2035    2.3866    0.0000 Cl  0  0  0  0  0  0  0  0  0
    3.4890    1.9741    0.0000 C   0  0  0  0  0  0  0  0  0
    3.4890    1.1491    0.0000 C   0  0  0  0  0  0  0  0  0
    2.7746    0.7366    0.0000 C   0  0  0  0  0  0  0  0  0
    2.0601    1.1491    0.0000 C   0  0  0  0  0  0  0  0  0
    2.0601    1.9741    0.0000 C   0  0  0  0  0  0  0  0  0
    2.7746    2.3866    0.0000 C   0  0  0  0  0  0  0  0  0
    2.7746    3.2116    0.0000 Cl  0  0  0  0  0  0  0  0  0
    2.7746   -0.0884    0.0000 C   0  0  0  0  0  0  0  0  0
    3.4420   -0.5733    0.0000 C   0  0  0  0  0  0  0  0  0
    3.1871   -1.3579    0.0000 C   0  0  0  0  0  0  0  0  0
    2.3621   -1.3579    0.0000 C   0  0  0  0  0  0  0  0  0
    2.1071   -0.5733    0.0000 C   0  0  0  0  0  0  0  0  0
    1.3225   -0.3183    0.0000 C   0  0  0  0  0  0  0  0  0
    1.1510    0.4886    0.0000 O   0  0  0  0  0  0  0  0  0
    0.3664    0.7436    0.0000 C   0  0  0  0  0  0  0  0  0
    0.7094   -0.8704    0.0000 O   0  0  0  0  0  0  0  0  0
  1  2  1  0  0  0  0
  2  3  4  0  0  0  0
  2  7  4  0  0  0  0
  3  4  4  0  0  0  0
  4  5  4  0  0  0  0
  4  9  1  0  0  0  0
  5  6  4  0  0  0  0
  6  7  4  0  0  0  0
  7  8  1  0  0  0  0
  9 10  1  0  0  0  0
  9 13  2  0  0  0  0
 10 11  1  0  0  0  0
 11 12  1  0  0  0  0
 12 13  1  0  0  0  0
 13 14  1  0  0  0  0
 14 15  1  0  0  0  0
 14 17  2  0  0  0  0
 15 16  1  0  0  0  0
M  END
>  <Name_Molregno>
392097

>  <Dopamine transporter>
5.6

>  <Norepinephrine transporter>
4.82

>  <Serotonin transporter>
3.1

$$$$
392099
  Marvin  02231216192D 0   1.00000     0.00000     0

 16 17  0  0  0  0  0  0  0  0999 V2000
    3.1567    3.1450    0.0000 Cl  0  0  0  0  0  0  0  0  0
    3.1567    2.3200    0.0000 C   0  0  0  0  0  0  0  0  0
    3.8712    1.9075    0.0000 C   0  0  0  0  0  0  0  0  0
    3.8712    1.0825    0.0000 C   0  0  0  0  0  0  0  0  0
    3.1567    0.6700    0.0000 C   0  0  0  0  0  0  0  0  0
    2.4422    1.0825    0.0000 C   0  0  0  0  0  0  0  0  0
    2.4422    1.9075    0.0000 C   0  0  0  0  0  0  0  0  0
    3.1567   -0.1550    0.0000 C   0  0  0  0  0  0  0  0  0
    3.8241   -0.6399    0.0000 C   0  0  0  0  0  0  0  0  0
    3.5692   -1.4245    0.0000 C   0  0  0  0  0  0  0  0  0
    2.7442   -1.4245    0.0000 C   0  0  0  0  0  0  0  0  0
    2.4892   -0.6399    0.0000 C   0  0  0  0  0  0  0  0  0
    1.7046   -0.3849    0.0000 C   0  0  0  0  0  0  0  0  0
    1.5331    0.4220    0.0000 O   0  0  0  0  0  0  0  0  0
    0.7485    0.6770    0.0000 C   0  0  0  0  0  0  0  0  0
    1.0915   -0.9370    0.0000 O   0  0  0  0  0  0  0  0  0
  1  2  1  0  0  0  0
  2  3  4  0  0  0  0
  2  7  4  0  0  0  0
  3  4  4  0  0  0  0
  4  5  4  0  0  0  0
  5  6  4  0  0  0  0
  5  8  1  0  0  0  0
  6  7  4  0  0  0  0
  8  9  1  0  0  0  0
  8 12  2  0  0  0  0
  9 10  1  0  0  0  0
 10 11  1  0  0  0  0
 11 12  1  0  0  0  0
 12 13  1  0  0  0  0
 13 14  1  0  0  0  0
 13 16  2  0  0  0  0
 14 15  1  0  0  0  0
M  END
>  <Name_Molregno>
392099

>  <Dopamine transporter>
5.21

>  <Norepinephrine transporter>
3.57

>  <Serotonin transporter>
2.55

$$$$
392101
  Marvin  02231216192D 0   1.00000     0.00000     0

 16 17  0  0  0  0  0  0  0  0999 V2000
    4.3813    2.4684    0.0000 Cl  0  0  0  0  0  0  0  0  0
    3.6669    2.0559    0.0000 C   0  0  0  0  0  0  0  0  0
    3.6669    1.2309    0.0000 C   0  0  0  0  0  0  0  0  0
    2.9524    0.8184    0.0000 C   0  0  0  0  0  0  0  0  0
    2.2379    1.2309    0.0000 C   0  0  0  0  0  0  0  0  0
    2.2379    2.0559    0.0000 C   0  0  0  0  0  0  0  0  0
    2.9524    2.4684    0.0000 C   0  0  0  0  0  0  0  0  0
    2.9524   -0.0066    0.0000 C   0  0  0  0  0  0  0  0  0
    3.6198   -0.4915    0.0000 C   0  0  0  0  0  0  0  0  0
    3.3649   -1.2761    0.0000 C   0  0  0  0  0  0  0  0  0
    2.5399   -1.2761    0.0000 C   0  0  0  0  0  0  0  0  0
    2.2850   -0.4915    0.0000 C   0  0  0  0  0  0  0  0  0
    1.5003   -0.2366    0.0000 C   0  0  0  0  0  0  0  0  0
    1.3288    0.5704    0.0000 O   0  0  0  0  0  0  0  0  0
    0.5442    0.8253    0.0000 C   0  0  0  0  0  0  0  0  0
    0.8872   -0.7886    0.0000 O   0  0  0  0  0  0  0  0  0
  1  2  1  0  0  0  0
  2  3  4  0  0  0  0
  2  7  4  0  0  0  0
  3  4  4  0  0  0  0
  4  5  4  0  0  0  0
  4  8  1  0  0  0  0
  5  6  4  0  0  0  0
  6  7  4  0  0  0  0
  8  9  1  0  0  0  0
  8 12  2  0  0  0  0
  9 10  1  0  0  0  0
 10 11  1  0  0  0  0
 11 12  1  0  0  0  0
 12 13  1  0  0  0  0
 13 14  1  0  0  0  0
 13 16  2  0  0  0  0
 14 15  1  0  0  0  0
M  END
>  <Name_Molregno>
392101

>  <Dopamine transporter>
4.8

>  <Norepinephrine transporter>
3.44

>  <Serotonin transporter>
2.65

$$$$
392102
  Marvin  02231216192D 0   1.00000     0.00000     0

 19 21  0  0  0  0  0  0  0  0999 V2000
    1.6059   -2.7420    0.0000 O   0  0  0  0  0  0  0  0  0
    1.7774   -1.9350    0.0000 C   0  0  0  0  0  0  0  0  0
    2.5620   -1.6801    0.0000 O   0  0  0  0  0  0  0  0  0
    1.1643   -1.3830    0.0000 C   0  0  0  0  0  0  0  0  0
    0.3574   -1.5545    0.0000 C   0  0  0  0  0  0  0  0  0
   -0.0551   -0.8401    0.0000 C   0  0  0  0  0  0  0  0  0
    0.4969   -0.2270    0.0000 C   0  0  0  0  0  0  0  0  0
    1.2506   -0.5625    0.0000 C   0  0  0  0  0  0  0  0  0
    1.9650   -0.1500    0.0000 C   0  0  0  0  0  0  0  0  0
    2.6795   -0.5625    0.0000 C   0  0  0  0  0  0  0  0  0
    3.3940   -0.1500    0.0000 C   0  0  0  0  0  0  0  0  0
    3.3940    0.6750    0.0000 C   0  0  0  0  0  0  0  0  0
    2.6795    1.0875    0.0000 C   0  0  0  0  0  0  0  0  0
    1.9650    0.6750    0.0000 C   0  0  0  0  0  0  0  0  0
    4.1085    1.0875    0.0000 C   0  0  0  0  0  0  0  0  0
    4.8229    0.6750    0.0000 C   0  0  0  0  0  0  0  0  0
    4.8229   -0.1500    0.0000 C   0  0  0  0  0  0  0  0  0
    4.1085   -0.5625    0.0000 C   0  0  0  0  0  0  0  0  0
    2.2190   -3.2940    0.0000 C   0  0  0  0  0  0  0  0  0
  1  2  1  0  0  0  0
  1 19  1  0  0  0  0
  2  3  2  0  0  0  0
  2  4  1  0  0  0  0
  4  5  1  0  0  0  0
  4  8  2  0  0  0  0
  5  6  1  0  0  0  0
  6  7  1  0  0  0  0
  7  8  1  0  0  0  0
  8  9  1  0  0  0  0
  9 10  4  0  0  0  0
  9 14  4  0  0  0  0
 10 11  4  0  0  0  0
 11 12  4  0  0  0  0
 11 18  4  0  0  0  0
 12 13  4  0  0  0  0
 12 15  4  0  0  0  0
 13 14  4  0  0  0  0
 15 16  4  0  0  0  0
 16 17  4  0  0  0  0
 17 18  4  0  0  0  0
M  END
>  <Name_Molregno>
392102

>  <Dopamine transporter>
5.31

>  <Norepinephrine transporter>
4.5

>  <Serotonin transporter>
3.38

$$$$
392103
  Marvin  02231216192D 0   1.00000     0.00000     0

 17 18  0  0  0  0  0  0  0  0999 V2000
   -2.0183    2.0894    0.0000 O   0  0  0  0  0  0  0  0  0
   -2.7328    2.5019    0.0000 C   0  0  0  0  0  0  0  0  0
   -2.0183    1.2644    0.0000 C   0  0  0  0  0  0  0  0  0
   -1.3038    0.8519    0.0000 C   0  0  0  0  0  0  0  0  0
   -1.3038    0.0269    0.0000 C   0  0  0  0  0  0  0  0  0
   -2.0183   -0.3856    0.0000 C   0  0  0  0  0  0  0  0  0
   -2.7328    0.0269    0.0000 C   0  0  0  0  0  0  0  0  0
   -2.7328    0.8519    0.0000 C   0  0  0  0  0  0  0  0  0
   -2.0183   -1.2106    0.0000 C   0  0  0  0  0  0  0  0  0
   -1.3509   -1.6956    0.0000 C   0  0  0  0  0  0  0  0  0
   -1.6058   -2.4802    0.0000 C   0  0  0  0  0  0  0  0  0
   -2.4308   -2.4802    0.0000 C   0  0  0  0  0  0  0  0  0
   -2.6858   -1.6956    0.0000 C   0  0  0  0  0  0  0  0  0
   -3.4704   -1.4406    0.0000 C   0  0  0  0  0  0  0  0  0
   -3.6419   -0.6337    0.0000 O   0  0  0  0  0  0  0  0  0
   -4.4265   -0.3787    0.0000 C   0  0  0  0  0  0  0  0  0
   -4.0835   -1.9927    0.0000 O   0  0  0  0  0  0  0  0  0
  1  2  1  0  0  0  0
  1  3  1  0  0  0  0
  3  4  4  0  0  0  0
  3  8  4  0  0  0  0
  4  5  4  0  0  0  0
  5  6  4  0  0  0  0
  6  7  4  0  0  0  0
  6  9  1  0  0  0  0
  7  8  4  0  0  0  0
  9 10  1  0  0  0  0
  9 13  2  0  0  0  0
 10 11  1  0  0  0  0
 11 12  1  0  0  0  0
 12 13  1  0  0  0  0
 13 14  1  0  0  0  0
 14 15  1  0  0  0  0
 14 17  2  0  0  0  0
 15 16  1  0  0  0  0
M  END
>  <Name_Molregno>
392103

>  <Dopamine transporter>
4.3

>  <Norepinephrine transporter>
3.06

>  <Serotonin transporter>
2.57

$$$$
392104
  Marvin  02231216192D 0   1.00000     0.00000     0

 19 20  0  0  0  0  0  0  0  0999 V2000
    4.4292    1.9834    0.0000 O   0  0  0  0  0  0  0  0  0
    3.7148    1.5709    0.0000 C   0  0  0  0  0  0  0  0  0
    3.0003    1.9834    0.0000 O   0  0  0  0  0  0  0  0  0
    3.7148    0.7459    0.0000 C   0  0  0  0  0  0  0  0  0
    4.3822    0.2610    0.0000 C   0  0  0  0  0  0  0  0  0
    4.1273   -0.5237    0.0000 C   0  0  0  0  0  0  0  0  0
    3.3023   -0.5237    0.0000 C   0  0  0  0  0  0  0  0  0
    3.0473    0.2610    0.0000 C   0  0  0  0  0  0  0  0  0
    2.2627    0.5159    0.0000 C   0  0  0  0  0  0  0  0  0
    1.6496   -0.0361    0.0000 C   0  0  0  0  0  0  0  0  0
    0.8650    0.2188    0.0000 C   0  0  0  0  0  0  0  0  0
    0.6935    1.0258    0.0000 C   0  0  0  0  0  0  0  0  0
    1.3066    1.5778    0.0000 C   0  0  0  0  0  0  0  0  0
    2.0912    1.3229    0.0000 C   0  0  0  0  0  0  0  0  0
   -0.0912    1.2807    0.0000 C   0  0  0  0  0  0  0  0  0
   -0.8758    1.5357    0.0000 C   0  0  0  0  0  0  0  0  0
   -0.3461    0.4961    0.0000 C   0  0  0  0  0  0  0  0  0
    0.1638    2.0653    0.0000 C   0  0  0  0  0  0  0  0  0
    4.4292    2.8084    0.0000 C   0  0  0  0  0  0  0  0  0
  1  2  1  0  0  0  0
  1 19  1  0  0  0  0
  2  3  2  0  0  0  0
  2  4  1  0  0  0  0
  4  5  1  0  0  0  0
  4  8  2  0  0  0  0
  5  6  1  0  0  0  0
  6  7  1  0  0  0  0
  7  8  1  0  0  0  0
  8  9  1  0  0  0  0
  9 10  4  0  0  0  0
  9 14  4  0  0  0  0
 10 11  4  0  0  0  0
 11 12  4  0  0  0  0
 12 13  4  0  0  0  0
 12 15  1  0  0  0  0
 13 14  4  0  0  0  0
 15 16  1  0  0  0  0
 15 17  1  0  0  0  0
 15 18  1  0  0  0  0
M  END
>  <Name_Molregno>
392104

>  <Dopamine transporter>
3.52

>  <Norepinephrine transporter>
3.1

>  <Serotonin transporter>
2.84

$$$$
392105
  Marvin  02231216192D 0   1.00000     0.00000     0

 20 21  0  0  0  0  0  0  0  0999 V2000
   -3.0343    2.5103    0.0000 F   0  0  0  0  0  0  0  0  0
   -2.3198    2.0978    0.0000 C   0  0  0  0  0  0  0  0  0
   -2.7323    1.3833    0.0000 F   0  0  0  0  0  0  0  0  0
   -1.9073    2.8123    0.0000 F   0  0  0  0  0  0  0  0  0
   -1.6053    1.6853    0.0000 O   0  0  0  0  0  0  0  0  0
   -1.6053    0.8603    0.0000 C   0  0  0  0  0  0  0  0  0
   -0.8909    0.4478    0.0000 C   0  0  0  0  0  0  0  0  0
   -0.8909   -0.3772    0.0000 C   0  0  0  0  0  0  0  0  0
   -1.6053   -0.7897    0.0000 C   0  0  0  0  0  0  0  0  0
   -2.3198   -0.3772    0.0000 C   0  0  0  0  0  0  0  0  0
   -2.3198    0.4478    0.0000 C   0  0  0  0  0  0  0  0  0
   -1.6053   -1.6147    0.0000 C   0  0  0  0  0  0  0  0  0
   -0.9379   -2.0996    0.0000 C   0  0  0  0  0  0  0  0  0
   -1.1928   -2.8843    0.0000 C   0  0  0  0  0  0  0  0  0
   -2.0178   -2.8843    0.0000 C   0  0  0  0  0  0  0  0  0
   -2.2728   -2.0996    0.0000 C   0  0  0  0  0  0  0  0  0
   -3.0574   -1.8447    0.0000 C   0  0  0  0  0  0  0  0  0
   -3.2289   -1.0377    0.0000 O   0  0  0  0  0  0  0  0  0
   -4.0135   -0.7828    0.0000 C   0  0  0  0  0  0  0  0  0
   -3.6705   -2.3967    0.0000 O   0  0  0  0  0  0  0  0  0
  1  2  1  0  0  0  0
  2  3  1  0  0  0  0
  2  4  1  0  0  0  0
  2  5  1  0  0  0  0
  5  6  1  0  0  0  0
  6  7  4  0  0  0  0
  6 11  4  0  0  0  0
  7  8  4  0  0  0  0
  8  9  4  0  0  0  0
  9 10  4  0  0  0  0
  9 12  1  0  0  0  0
 10 11  4  0  0  0  0
 12 13  1  0  0  0  0
 12 16  2  0  0  0  0
 13 14  1  0  0  0  0
 14 15  1  0  0  0  0
 15 16  1  0  0  0  0
 16 17  1  0  0  0  0
 17 18  1  0  0  0  0
 17 20  2  0  0  0  0
 18 19  1  0  0  0  0
M  END
>  <Name_Molregno>
392105

>  <Dopamine transporter>
2.58

>  <Norepinephrine transporter>
2.54

>  <Serotonin transporter>
2.42

$$$$
392107
  Marvin  02231216192D 0   1.00000     0.00000     0

 18 19  0  0  0  0  0  0  0  0999 V2000
    4.1185    2.0661    0.0000 O   0  0  0  0  0  0  0  0  0
    3.4040    1.6536    0.0000 C   0  0  0  0  0  0  0  0  0
    2.6895    2.0661    0.0000 O   0  0  0  0  0  0  0  0  0
    3.4040    0.8286    0.0000 C   0  0  0  0  0  0  0  0  0
    4.0714    0.3437    0.0000 C   0  0  0  0  0  0  0  0  0
    3.8165   -0.4410    0.0000 C   0  0  0  0  0  0  0  0  0
    2.9915   -0.4410    0.0000 C   0  0  0  0  0  0  0  0  0
    2.7365    0.3437    0.0000 C   0  0  0  0  0  0  0  0  0
    1.9519    0.5986    0.0000 C   0  0  0  0  0  0  0  0  0
    1.3388    0.0466    0.0000 C   0  0  0  0  0  0  0  0  0
    0.5542    0.3015    0.0000 C   0  0  0  0  0  0  0  0  0
    0.3827    1.1085    0.0000 C   0  0  0  0  0  0  0  0  0
    0.9958    1.6605    0.0000 C   0  0  0  0  0  0  0  0  0
    1.7804    1.4056    0.0000 C   0  0  0  0  0  0  0  0  0
   -0.4019    1.3634    0.0000 C   0  0  0  0  0  0  0  0  0
   -0.5735    2.1704    0.0000 O   0  0  0  0  0  0  0  0  0
   -1.0150    0.8114    0.0000 C   0  0  0  0  0  0  0  0  0
    4.1185    2.8911    0.0000 C   0  0  0  0  0  0  0  0  0
  1  2  1  0  0  0  0
  1 18  1  0  0  0  0
  2  3  2  0  0  0  0
  2  4  1  0  0  0  0
  4  5  1  0  0  0  0
  4  8  2  0  0  0  0
  5  6  1  0  0  0  0
  6  7  1  0  0  0  0
  7  8  1  0  0  0  0
  8  9  1  0  0  0  0
  9 10  4  0  0  0  0
  9 14  4  0  0  0  0
 10 11  4  0  0  0  0
 11 12  4  0  0  0  0
 12 13  4  0  0  0  0
 12 15  1  0  0  0  0
 13 14  4  0  0  0  0
 15 16  2  0  0  0  0
 15 17  1  0  0  0  0
M  END
>  <Name_Molregno>
392107

>  <Dopamine transporter>
3.75

>  <Norepinephrine transporter>
3.41

>  <Serotonin transporter>
3.24

$$$$
392109
  Marvin  02231216192D 0   1.00000     0.00000     0

 16 17  0  0  0  0  0  0  0  0999 V2000
    3.7555    1.0359    0.0000 O   0  0  0  0  0  0  0  0  0
    3.0410    0.6234    0.0000 C   0  0  0  0  0  0  0  0  0
    2.3266    1.0359    0.0000 O   0  0  0  0  0  0  0  0  0
    3.0410   -0.2016    0.0000 C   0  0  0  0  0  0  0  0  0
    3.7085   -0.6866    0.0000 C   0  0  0  0  0  0  0  0  0
    3.4535   -1.4712    0.0000 C   0  0  0  0  0  0  0  0  0
    2.6285   -1.4712    0.0000 C   0  0  0  0  0  0  0  0  0
    2.3736   -0.6866    0.0000 C   0  0  0  0  0  0  0  0  0
    1.5890   -0.4316    0.0000 C   0  0  0  0  0  0  0  0  0
    0.9759   -0.9837    0.0000 C   0  0  0  0  0  0  0  0  0
    0.1912   -0.7287    0.0000 C   0  0  0  0  0  0  0  0  0
   -0.4218   -1.2807    0.0000 N   0  0  0  0  0  0  0  0  0
    0.0197    0.0783    0.0000 C   0  0  0  0  0  0  0  0  0
    0.6328    0.6303    0.0000 C   0  0  0  0  0  0  0  0  0
    1.4174    0.3754    0.0000 C   0  0  0  0  0  0  0  0  0
    3.7555    1.8609    0.0000 C   0  0  0  0  0  0  0  0  0
  1  2  1  0  0  0  0
  1 16  1  0  0  0  0
  2  3  2  0  0  0  0
  2  4  1  0  0  0  0
  4  5  1  0  0  0  0
  4  8  2  0  0  0  0
  5  6  1  0  0  0  0
  6  7  1  0  0  0  0
  7  8  1  0  0  0  0
  8  9  1  0  0  0  0
  9 10  4  0  0  0  0
  9 15  4  0  0  0  0
 10 11  4  0  0  0  0
 11 12  1  0  0  0  0
 11 13  4  0  0  0  0
 13 14  4  0  0  0  0
 14 15  4  0  0  0  0
M  END
>  <Name_Molregno>
392109

>  <Dopamine transporter>
3.35

>  <Norepinephrine transporter>
3.25

>  <Serotonin transporter>
2.63

$$$$
392111
  Marvin  02231216192D 0   1.00000     0.00000     0

 18 19  0  0  0  0  0  0  0  0999 V2000
    4.1185    2.0661    0.0000 O   0  0  0  0  0  0  0  0  0
    3.4040    1.6536    0.0000 C   0  0  0  0  0  0  0  0  0
    2.6895    2.0661    0.0000 O   0  0  0  0  0  0  0  0  0
    3.4040    0.8286    0.0000 C   0  0  0  0  0  0  0  0  0
    4.0714    0.3437    0.0000 C   0  0  0  0  0  0  0  0  0
    3.8165   -0.4410    0.0000 C   0  0  0  0  0  0  0  0  0
    2.9915   -0.4410    0.0000 C   0  0  0  0  0  0  0  0  0
    2.7365    0.3437    0.0000 C   0  0  0  0  0  0  0  0  0
    1.9519    0.5986    0.0000 C   0  0  0  0  0  0  0  0  0
    1.3388    0.0466    0.0000 C   0  0  0  0  0  0  0  0  0
    0.5542    0.3015    0.0000 C   0  0  0  0  0  0  0  0  0
    0.3827    1.1085    0.0000 C   0  0  0  0  0  0  0  0  0
   -0.4019    1.3634    0.0000 N   0  3  0  0  0  0  0  0  0
   -0.5735    2.1704    0.0000 O   0  5  0  0  0  0  0  0  0
   -1.0150    0.8114    0.0000 O   0  5  0  0  0  0  0  0  0
    0.9958    1.6605    0.0000 C   0  0  0  0  0  0  0  0  0
    1.7804    1.4056    0.0000 C   0  0  0  0  0  0  0  0  0
    4.1185    2.8911    0.0000 C   0  0  0  0  0  0  0  0  0
  1  2  1  0  0  0  0
  1 18  1  0  0  0  0
  2  3  2  0  0  0  0
  2  4  1  0  0  0  0
  4  5  1  0  0  0  0
  4  8  2  0  0  0  0
  5  6  1  0  0  0  0
  6  7  1  0  0  0  0
  7  8  1  0  0  0  0
  8  9  1  0  0  0  0
  9 10  4  0  0  0  0
  9 17  4  0  0  0  0
 10 11  4  0  0  0  0
 11 12  4  0  0  0  0
 12 13  1  0  0  0  0
 12 16  4  0  0  0  0
 13 14  1  0  0  0  0
 13 15  1  0  0  0  0
 16 17  4  0  0  0  0
M  CHG  3  13   1  14  -1  15  -1
M  END
>  <Name_Molregno>
392111

>  <Dopamine transporter>
5.18

>  <Norepinephrine transporter>
3.95

>  <Serotonin transporter>
2.94

$$$$
392113
  Marvin  02231216192D 0   1.00000     0.00000     0

 18 19  0  0  0  0  0  0  0  0999 V2000
    1.1377    4.1415    0.0000 Cl  0  0  0  0  0  0  0  0  0
    1.1377    3.3165    0.0000 C   0  0  0  0  0  0  0  0  0
    1.8522    2.9040    0.0000 C   0  0  0  0  0  0  0  0  0
    1.8522    2.0790    0.0000 C   0  0  0  0  0  0  0  0  0
    1.1377    1.6665    0.0000 C   0  0  0  0  0  0  0  0  0
    0.4232    2.0790    0.0000 C   0  0  0  0  0  0  0  0  0
    0.4232    2.9040    0.0000 C   0  0  0  0  0  0  0  0  0
   -0.2912    3.3165    0.0000 Cl  0  0  0  0  0  0  0  0  0
    2.5666    1.6665    0.0000 C   0  0  0  0  0  0  0  0  0
    3.2811    2.0790    0.0000 C   0  0  0  0  0  0  0  0  0
    3.9956    1.6665    0.0000 C   0  0  0  0  0  0  0  0  0
    3.9956    0.8415    0.0000 C   0  0  0  0  0  0  0  0  0
    3.2811    0.4290    0.0000 C   0  0  0  0  0  0  0  0  0
    2.5666    0.8415    0.0000 C   0  0  0  0  0  0  0  0  0
    1.8522    0.4290    0.0000 C   0  0  0  0  0  0  0  0  0
    1.1377    0.8415    0.0000 O   0  0  0  0  0  0  0  0  0
    0.4232    0.4290    0.0000 C   0  0  0  0  0  0  0  0  0
    1.8522   -0.3960    0.0000 O   0  0  0  0  0  0  0  0  0
  1  2  1  0  0  0  0
  2  3  4  0  0  0  0
  2  7  4  0  0  0  0
  3  4  4  0  0  0  0
  4  5  4  0  0  0  0
  4  9  1  0  0  0  0
  5  6  4  0  0  0  0
  6  7  4  0  0  0  0
  7  8  1  0  0  0  0
  9 10  1  0  0  0  0
  9 14  2  0  0  0  0
 10 11  1  0  0  0  0
 11 12  1  0  0  0  0
 12 13  1  0  0  0  0
 13 14  1  0  0  0  0
 14 15  1  0  0  0  0
 15 16  1  0  0  0  0
 15 18  2  0  0  0  0
 16 17  1  0  0  0  0
M  END
>  <Name_Molregno>
392113

>  <Dopamine transporter>
5.94

>  <Norepinephrine transporter>
5.08

>  <Serotonin transporter>
3.64

$$$$
392115
  Marvin  02231216192D 0   1.00000     0.00000     0

 17 18  0  0  0  0  0  0  0  0999 V2000
    3.1345    3.1905    0.0000 Cl  0  0  0  0  0  0  0  0  0
    3.1345    2.3655    0.0000 C   0  0  0  0  0  0  0  0  0
    3.8489    1.9530    0.0000 C   0  0  0  0  0  0  0  0  0
    3.8489    1.1280    0.0000 C   0  0  0  0  0  0  0  0  0
    3.1345    0.7155    0.0000 C   0  0  0  0  0  0  0  0  0
    2.4200    1.1280    0.0000 C   0  0  0  0  0  0  0  0  0
    2.4200    1.9530    0.0000 C   0  0  0  0  0  0  0  0  0
    3.1345   -0.1095    0.0000 C   0  0  0  0  0  0  0  0  0
    3.8489   -0.5220    0.0000 C   0  0  0  0  0  0  0  0  0
    3.8489   -1.3470    0.0000 C   0  0  0  0  0  0  0  0  0
    3.1345   -1.7595    0.0000 C   0  0  0  0  0  0  0  0  0
    2.4200   -1.3470    0.0000 C   0  0  0  0  0  0  0  0  0
    2.4200   -0.5220    0.0000 C   0  0  0  0  0  0  0  0  0
    1.7055   -0.1095    0.0000 C   0  0  0  0  0  0  0  0  0
    1.7055    0.7155    0.0000 O   0  0  0  0  0  0  0  0  0
    0.9910    1.1280    0.0000 C   0  0  0  0  0  0  0  0  0
    0.9910   -0.5220    0.0000 O   0  0  0  0  0  0  0  0  0
  1  2  1  0  0  0  0
  2  3  4  0  0  0  0
  2  7  4  0  0  0  0
  3  4  4  0  0  0  0
  4  5  4  0  0  0  0
  5  6  4  0  0  0  0
  5  8  1  0  0  0  0
  6  7  4  0  0  0  0
  8  9  1  0  0  0  0
  8 13  2  0  0  0  0
  9 10  1  0  0  0  0
 10 11  1  0  0  0  0
 11 12  1  0  0  0  0
 12 13  1  0  0  0  0
 13 14  1  0  0  0  0
 14 15  1  0  0  0  0
 14 17  2  0  0  0  0
 15 16  1  0  0  0  0
M  END
>  <Name_Molregno>
392115

>  <Dopamine transporter>
4.79

>  <Norepinephrine transporter>
3.25

>  <Serotonin transporter>
2.73

$$$$
392117
  Marvin  02231216192D 0   1.00000     0.00000     0

 17 18  0  0  0  0  0  0  0  0999 V2000
    1.7778    3.0552    0.0000 Cl  0  0  0  0  0  0  0  0  0
    1.7778    2.2302    0.0000 C   0  0  0  0  0  0  0  0  0
    2.4922    1.8177    0.0000 C   0  0  0  0  0  0  0  0  0
    2.4922    0.9927    0.0000 C   0  0  0  0  0  0  0  0  0
    1.7778    0.5802    0.0000 C   0  0  0  0  0  0  0  0  0
    1.0633    0.9927    0.0000 C   0  0  0  0  0  0  0  0  0
    1.0633    1.8177    0.0000 C   0  0  0  0  0  0  0  0  0
    3.2067    0.5802    0.0000 C   0  0  0  0  0  0  0  0  0
    3.9212    0.9927    0.0000 C   0  0  0  0  0  0  0  0  0
    4.6356    0.5802    0.0000 C   0  0  0  0  0  0  0  0  0
    4.6356   -0.2448    0.0000 C   0  0  0  0  0  0  0  0  0
    3.9212   -0.6573    0.0000 C   0  0  0  0  0  0  0  0  0
    3.2067   -0.2448    0.0000 C   0  0  0  0  0  0  0  0  0
    2.4922   -0.6573    0.0000 C   0  0  0  0  0  0  0  0  0
    1.7778   -0.2448    0.0000 O   0  0  0  0  0  0  0  0  0
    1.0633   -0.6573    0.0000 C   0  0  0  0  0  0  0  0  0
    2.4922   -1.4823    0.0000 O   0  0  0  0  0  0  0  0  0
  1  2  1  0  0  0  0
  2  3  4  0  0  0  0
  2  7  4  0  0  0  0
  3  4  4  0  0  0  0
  4  5  4  0  0  0  0
  4  8  1  0  0  0  0
  5  6  4  0  0  0  0
  6  7  4  0  0  0  0
  8  9  1  0  0  0  0
  8 13  2  0  0  0  0
  9 10  1  0  0  0  0
 10 11  1  0  0  0  0
 11 12  1  0  0  0  0
 12 13  1  0  0  0  0
 13 14  1  0  0  0  0
 14 15  1  0  0  0  0
 14 17  2  0  0  0  0
 15 16  1  0  0  0  0
M  END
>  <Name_Molregno>
392117

>  <Dopamine transporter>
4.39

>  <Norepinephrine transporter>
3.26

>  <Serotonin transporter>
2.93

$$$$
392119
  Marvin  02231216192D 0   1.00000     0.00000     0

 20 22  0  0  0  0  0  0  0  0999 V2000
    0.9311   -3.8984    0.0000 O   0  0  0  0  0  0  0  0  0
    0.9311   -3.0734    0.0000 C   0  0  0  0  0  0  0  0  0
    1.6455   -2.6609    0.0000 O   0  0  0  0  0  0  0  0  0
    0.2166   -2.6609    0.0000 C   0  0  0  0  0  0  0  0  0
   -0.4979   -3.0734    0.0000 C   0  0  0  0  0  0  0  0  0
   -1.2124   -2.6609    0.0000 C   0  0  0  0  0  0  0  0  0
   -1.2124   -1.8359    0.0000 C   0  0  0  0  0  0  0  0  0
   -0.4979   -1.4234    0.0000 C   0  0  0  0  0  0  0  0  0
    0.2166   -1.8359    0.0000 C   0  0  0  0  0  0  0  0  0
    0.9311   -1.4234    0.0000 C   0  0  0  0  0  0  0  0  0
    1.6455   -1.8359    0.0000 C   0  0  0  0  0  0  0  0  0
    2.3600   -1.4234    0.0000 C   0  0  0  0  0  0  0  0  0
    2.3600   -0.5984    0.0000 C   0  0  0  0  0  0  0  0  0
    1.6455   -0.1859    0.0000 C   0  0  0  0  0  0  0  0  0
    0.9311   -0.5984    0.0000 C   0  0  0  0  0  0  0  0  0
    3.0745   -0.1859    0.0000 C   0  0  0  0  0  0  0  0  0
    3.7889   -0.5984    0.0000 C   0  0  0  0  0  0  0  0  0
    3.7889   -1.4234    0.0000 C   0  0  0  0  0  0  0  0  0
    3.0745   -1.8359    0.0000 C   0  0  0  0  0  0  0  0  0
    1.6455   -4.3109    0.0000 C   0  0  0  0  0  0  0  0  0
  1  2  1  0  0  0  0
  1 20  1  0  0  0  0
  2  3  2  0  0  0  0
  2  4  1  0  0  0  0
  4  5  1  0  0  0  0
  4  9  2  0  0  0  0
  5  6  1  0  0  0  0
  6  7  1  0  0  0  0
  7  8  1  0  0  0  0
  8  9  1  0  0  0  0
  9 10  1  0  0  0  0
 10 11  4  0  0  0  0
 10 15  4  0  0  0  0
 11 12  4  0  0  0  0
 12 13  4  0  0  0  0
 12 19  4  0  0  0  0
 13 14  4  0  0  0  0
 13 16  4  0  0  0  0
 14 15  4  0  0  0  0
 16 17  4  0  0  0  0
 17 18  4  0  0  0  0
 18 19  4  0  0  0  0
M  END
>  <Name_Molregno>
392119

>  <Dopamine transporter>
5.22

>  <Norepinephrine transporter>
4.55

>  <Serotonin transporter>
3.96

$$$$
392120
  Marvin  02231216192D 0   1.00000     0.00000     0

 22 24  0  0  0  0  0  0  0  0999 V2000
    4.1566   -1.0974    0.0000 O   0  0  0  0  0  0  0  0  0
    3.4421   -1.5099    0.0000 C   0  0  0  0  0  0  0  0  0
    2.7277   -1.0974    0.0000 O   0  0  0  0  0  0  0  0  0
    3.4421   -2.3349    0.0000 C   0  0  0  0  0  0  0  0  0
    4.1566   -2.7474    0.0000 C   0  0  0  0  0  0  0  0  0
    4.1566   -3.5724    0.0000 C   0  0  0  0  0  0  0  0  0
    3.4421   -3.9849    0.0000 C   0  0  0  0  0  0  0  0  0
    2.7277   -3.5724    0.0000 C   0  0  0  0  0  0  0  0  0
    2.7277   -2.7474    0.0000 C   0  0  0  0  0  0  0  0  0
    2.0132   -2.3349    0.0000 C   0  0  0  0  0  0  0  0  0
    1.2987   -2.7474    0.0000 C   0  0  0  0  0  0  0  0  0
    0.5843   -2.3349    0.0000 C   0  0  0  0  0  0  0  0  0
    0.5843   -1.5099    0.0000 C   0  0  0  0  0  0  0  0  0
    1.2987   -1.0974    0.0000 C   0  0  0  0  0  0  0  0  0
    2.0132   -1.5099    0.0000 C   0  0  0  0  0  0  0  0  0
   -0.1302   -1.0974    0.0000 C   0  0  0  0  0  0  0  0  0
   -0.8447   -1.5099    0.0000 C   0  0  0  0  0  0  0  0  0
   -1.5592   -1.0974    0.0000 C   0  0  0  0  0  0  0  0  0
   -1.5592   -0.2724    0.0000 C   0  0  0  0  0  0  0  0  0
   -0.8447    0.1401    0.0000 C   0  0  0  0  0  0  0  0  0
   -0.1302   -0.2724    0.0000 C   0  0  0  0  0  0  0  0  0
    4.1566   -0.2724    0.0000 C   0  0  0  0  0  0  0  0  0
  1  2  1  0  0  0  0
  1 22  1  0  0  0  0
  2  3  2  0  0  0  0
  2  4  1  0  0  0  0
  4  5  1  0  0  0  0
  4  9  2  0  0  0  0
  5  6  1  0  0  0  0
  6  7  1  0  0  0  0
  7  8  1  0  0  0  0
  8  9  1  0  0  0  0
  9 10  1  0  0  0  0
 10 11  4  0  0  0  0
 10 15  4  0  0  0  0
 11 12  4  0  0  0  0
 12 13  4  0  0  0  0
 13 14  4  0  0  0  0
 13 16  1  0  0  0  0
 14 15  4  0  0  0  0
 16 17  4  0  0  0  0
 16 21  4  0  0  0  0
 17 18  4  0  0  0  0
 18 19  4  0  0  0  0
 19 20  4  0  0  0  0
 20 21  4  0  0  0  0
M  END
>  <Name_Molregno>
392120

>  <Dopamine transporter>
3.58

>  <Norepinephrine transporter>
3.67

>  <Serotonin transporter>
3.08

$$$$
392122
  Marvin  02231216192D 0   1.00000     0.00000     0

 20 21  0  0  0  0  0  0  0  0999 V2000
    3.4613   -0.8774    0.0000 O   0  0  0  0  0  0  0  0  0
    2.7468   -1.2899    0.0000 C   0  0  0  0  0  0  0  0  0
    2.0324   -0.8774    0.0000 O   0  0  0  0  0  0  0  0  0
    2.7468   -2.1149    0.0000 C   0  0  0  0  0  0  0  0  0
    3.4613   -2.5274    0.0000 C   0  0  0  0  0  0  0  0  0
    3.4613   -3.3524    0.0000 C   0  0  0  0  0  0  0  0  0
    2.7468   -3.7649    0.0000 C   0  0  0  0  0  0  0  0  0
    2.0324   -3.3524    0.0000 C   0  0  0  0  0  0  0  0  0
    2.0324   -2.5274    0.0000 C   0  0  0  0  0  0  0  0  0
    1.3179   -2.1149    0.0000 C   0  0  0  0  0  0  0  0  0
    0.6034   -2.5274    0.0000 C   0  0  0  0  0  0  0  0  0
   -0.1110   -2.1149    0.0000 C   0  0  0  0  0  0  0  0  0
   -0.1110   -1.2899    0.0000 C   0  0  0  0  0  0  0  0  0
    0.6034   -0.8774    0.0000 C   0  0  0  0  0  0  0  0  0
    1.3179   -1.2899    0.0000 C   0  0  0  0  0  0  0  0  0
   -0.8255   -0.8774    0.0000 C   0  0  0  0  0  0  0  0  0
   -1.5400   -0.4649    0.0000 C   0  0  0  0  0  0  0  0  0
   -1.2380   -1.5918    0.0000 C   0  0  0  0  0  0  0  0  0
   -0.4130   -0.1629    0.0000 C   0  0  0  0  0  0  0  0  0
    3.4613   -0.0524    0.0000 C   0  0  0  0  0  0  0  0  0
  1  2  1  0  0  0  0
  1 20  1  0  0  0  0
  2  3  2  0  0  0  0
  2  4  1  0  0  0  0
  4  5  1  0  0  0  0
  4  9  2  0  0  0  0
  5  6  1  0  0  0  0
  6  7  1  0  0  0  0
  7  8  1  0  0  0  0
  8  9  1  0  0  0  0
  9 10  1  0  0  0  0
 10 11  4  0  0  0  0
 10 15  4  0  0  0  0
 11 12  4  0  0  0  0
 12 13  4  0  0  0  0
 13 14  4  0  0  0  0
 13 16  1  0  0  0  0
 14 15  4  0  0  0  0
 16 17  1  0  0  0  0
 16 18  1  0  0  0  0
 16 19  1  0  0  0  0
M  END
>  <Name_Molregno>
392122

>  <Dopamine transporter>
3.22

>  <Norepinephrine transporter>
2.96

>  <Serotonin transporter>
2.65

$$$$
392125
  Marvin  02231216192D 0   1.00000     0.00000     0

 21 22  0  0  0  0  0  0  0  0999 V2000
    2.3528    2.3925    0.0000 F   0  0  0  0  0  0  0  0  0
    3.0673    1.9800    0.0000 C   0  0  0  0  0  0  0  0  0
    2.6548    1.2655    0.0000 F   0  0  0  0  0  0  0  0  0
    3.4798    2.6945    0.0000 F   0  0  0  0  0  0  0  0  0
    3.7817    1.5675    0.0000 O   0  0  0  0  0  0  0  0  0
    3.7817    0.7425    0.0000 C   0  0  0  0  0  0  0  0  0
    4.4962    0.3300    0.0000 C   0  0  0  0  0  0  0  0  0
    4.4962   -0.4950    0.0000 C   0  0  0  0  0  0  0  0  0
    3.7817   -0.9075    0.0000 C   0  0  0  0  0  0  0  0  0
    3.0673   -0.4950    0.0000 C   0  0  0  0  0  0  0  0  0
    3.0673    0.3300    0.0000 C   0  0  0  0  0  0  0  0  0
    3.7817   -1.7325    0.0000 C   0  0  0  0  0  0  0  0  0
    4.4962   -2.1450    0.0000 C   0  0  0  0  0  0  0  0  0
    4.4962   -2.9700    0.0000 C   0  0  0  0  0  0  0  0  0
    3.7817   -3.3825    0.0000 C   0  0  0  0  0  0  0  0  0
    3.0673   -2.9700    0.0000 C   0  0  0  0  0  0  0  0  0
    3.0673   -2.1450    0.0000 C   0  0  0  0  0  0  0  0  0
    2.3528   -1.7325    0.0000 C   0  0  0  0  0  0  0  0  0
    2.3528   -0.9075    0.0000 O   0  0  0  0  0  0  0  0  0
    1.6383   -0.4950    0.0000 C   0  0  0  0  0  0  0  0  0
    1.6383   -2.1450    0.0000 O   0  0  0  0  0  0  0  0  0
  1  2  1  0  0  0  0
  2  3  1  0  0  0  0
  2  4  1  0  0  0  0
  2  5  1  0  0  0  0
  5  6  1  0  0  0  0
  6  7  4  0  0  0  0
  6 11  4  0  0  0  0
  7  8  4  0  0  0  0
  8  9  4  0  0  0  0
  9 10  4  0  0  0  0
  9 12  1  0  0  0  0
 10 11  4  0  0  0  0
 12 13  1  0  0  0  0
 12 17  2  0  0  0  0
 13 14  1  0  0  0  0
 14 15  1  0  0  0  0
 15 16  1  0  0  0  0
 16 17  1  0  0  0  0
 17 18  1  0  0  0  0
 18 19  1  0  0  0  0
 18 21  2  0  0  0  0
 19 20  1  0  0  0  0
M  END
>  <Name_Molregno>
392125

>  <Dopamine transporter>
2.78

>  <Norepinephrine transporter>
2.6

>  <Serotonin transporter>
2.33

$$$$
392126
  Marvin  02231216192D 0   1.00000     0.00000     0

 16 17  0  0  0  0  0  0  0  0999 V2000
    2.1990    2.6675    0.0000 O   0  0  0  0  0  0  0  0  0
    1.4845    2.2550    0.0000 C   0  0  0  0  0  0  0  0  0
    0.7700    2.6675    0.0000 O   0  0  0  0  0  0  0  0  0
    1.4845    1.4300    0.0000 C   0  0  0  0  0  0  0  0  0
    2.1990    1.0175    0.0000 C   0  0  0  0  0  0  0  0  0
    2.1990    0.1925    0.0000 C   0  0  0  0  0  0  0  0  0
    1.4845   -0.2200    0.0000 C   0  0  0  0  0  0  0  0  0
    0.7700    0.1925    0.0000 C   0  0  0  0  0  0  0  0  0
    0.7700    1.0175    0.0000 C   0  0  0  0  0  0  0  0  0
    0.0555    1.4300    0.0000 C   0  0  0  0  0  0  0  0  0
   -0.6589    1.0175    0.0000 C   0  0  0  0  0  0  0  0  0
   -1.3734    1.4300    0.0000 C   0  0  0  0  0  0  0  0  0
   -1.3734    2.2550    0.0000 C   0  0  0  0  0  0  0  0  0
   -0.6589    2.6675    0.0000 C   0  0  0  0  0  0  0  0  0
    0.0555    2.2550    0.0000 C   0  0  0  0  0  0  0  0  0
    2.1990    3.4925    0.0000 C   0  0  0  0  0  0  0  0  0
  1  2  1  0  0  0  0
  1 16  1  0  0  0  0
  2  3  2  0  0  0  0
  2  4  1  0  0  0  0
  4  5  1  0  0  0  0
  4  9  2  0  0  0  0
  5  6  1  0  0  0  0
  6  7  1  0  0  0  0
  7  8  1  0  0  0  0
  8  9  1  0  0  0  0
  9 10  1  0  0  0  0
 10 11  4  0  0  0  0
 10 15  4  0  0  0  0
 11 12  4  0  0  0  0
 12 13  4  0  0  0  0
 13 14  4  0  0  0  0
 14 15  4  0  0  0  0
M  END
>  <Name_Molregno>
392126

>  <Dopamine transporter>
3.2

>  <Norepinephrine transporter>
2.6

>  <Serotonin transporter>
3.18

$$$$
392128
  Marvin  02231216192D 0   1.00000     0.00000     0

 20 21  0  0  0  0  0  0  0  0999 V2000
    1.0701    1.7601    0.0000 F   0  0  0  0  0  0  0  0  0
    1.0701    0.9351    0.0000 C   0  0  0  0  0  0  0  0  0
    0.2451    0.9351    0.0000 F   0  0  0  0  0  0  0  0  0
    1.8951    0.9351    0.0000 F   0  0  0  0  0  0  0  0  0
    1.0701    0.1101    0.0000 C   0  0  0  0  0  0  0  0  0
    1.7846   -0.3024    0.0000 C   0  0  0  0  0  0  0  0  0
    1.7846   -1.1274    0.0000 C   0  0  0  0  0  0  0  0  0
    1.0701   -1.5399    0.0000 C   0  0  0  0  0  0  0  0  0
    0.3556   -1.1274    0.0000 C   0  0  0  0  0  0  0  0  0
    0.3556   -0.3024    0.0000 C   0  0  0  0  0  0  0  0  0
    2.4990   -1.5399    0.0000 C   0  0  0  0  0  0  0  0  0
    3.2135   -1.1274    0.0000 C   0  0  0  0  0  0  0  0  0
    3.9280   -1.5399    0.0000 C   0  0  0  0  0  0  0  0  0
    3.9280   -2.3649    0.0000 C   0  0  0  0  0  0  0  0  0
    3.2135   -2.7774    0.0000 C   0  0  0  0  0  0  0  0  0
    2.4990   -2.3649    0.0000 C   0  0  0  0  0  0  0  0  0
    1.7846   -2.7774    0.0000 C   0  0  0  0  0  0  0  0  0
    1.0701   -2.3649    0.0000 O   0  0  0  0  0  0  0  0  0
    0.3556   -2.7774    0.0000 C   0  0  0  0  0  0  0  0  0
    1.7846   -3.6024    0.0000 O   0  0  0  0  0  0  0  0  0
  1  2  1  0  0  0  0
  2  3  1  0  0  0  0
  2  4  1  0  0  0  0
  2  5  1  0  0  0  0
  5  6  4  0  0  0  0
  5 10  4  0  0  0  0
  6  7  4  0  0  0  0
  7  8  4  0  0  0  0
  7 11  1  0  0  0  0
  8  9  4  0  0  0  0
  9 10  4  0  0  0  0
 11 12  1  0  0  0  0
 11 16  2  0  0  0  0
 12 13  1  0  0  0  0
 13 14  1  0  0  0  0
 14 15  1  0  0  0  0
 15 16  1  0  0  0  0
 16 17  1  0  0  0  0
 17 18  1  0  0  0  0
 17 20  2  0  0  0  0
 18 19  1  0  0  0  0
M  END
>  <Name_Molregno>
392128

>  <Dopamine transporter>
2.98

>  <Norepinephrine transporter>
2.68

>  <Serotonin transporter>
2.3

$$$$
392130
  Marvin  02231216192D 0   1.00000     0.00000     0

 20 21  0  0  0  0  0  0  0  0999 V2000
    3.4294    2.6995    0.0000 F   0  0  0  0  0  0  0  0  0
    3.4294    1.8745    0.0000 C   0  0  0  0  0  0  0  0  0
    2.6044    1.8745    0.0000 F   0  0  0  0  0  0  0  0  0
    4.2544    1.8745    0.0000 F   0  0  0  0  0  0  0  0  0
    3.4294    1.0495    0.0000 C   0  0  0  0  0  0  0  0  0
    4.1439    0.6370    0.0000 C   0  0  0  0  0  0  0  0  0
    4.1439   -0.1880    0.0000 C   0  0  0  0  0  0  0  0  0
    3.4294   -0.6005    0.0000 C   0  0  0  0  0  0  0  0  0
    2.7150   -0.1880    0.0000 C   0  0  0  0  0  0  0  0  0
    2.7150    0.6370    0.0000 C   0  0  0  0  0  0  0  0  0
    3.4294   -1.4255    0.0000 C   0  0  0  0  0  0  0  0  0
    4.1439   -1.8380    0.0000 C   0  0  0  0  0  0  0  0  0
    4.1439   -2.6630    0.0000 C   0  0  0  0  0  0  0  0  0
    3.4294   -3.0755    0.0000 C   0  0  0  0  0  0  0  0  0
    2.7150   -2.6630    0.0000 C   0  0  0  0  0  0  0  0  0
    2.7150   -1.8380    0.0000 C   0  0  0  0  0  0  0  0  0
    2.0005   -1.4255    0.0000 C   0  0  0  0  0  0  0  0  0
    2.0005   -0.6005    0.0000 O   0  0  0  0  0  0  0  0  0
    1.2860   -0.1880    0.0000 C   0  0  0  0  0  0  0  0  0
    1.2860   -1.8380    0.0000 O   0  0  0  0  0  0  0  0  0
  1  2  1  0  0  0  0
  2  3  1  0  0  0  0
  2  4  1  0  0  0  0
  2  5  1  0  0  0  0
  5  6  4  0  0  0  0
  5 10  4  0  0  0  0
  6  7  4  0  0  0  0
  7  8  4  0  0  0  0
  8  9  4  0  0  0  0
  8 11  1  0  0  0  0
  9 10  4  0  0  0  0
 11 12  1  0  0  0  0
 11 16  2  0  0  0  0
 12 13  1  0  0  0  0
 13 14  1  0  0  0  0
 14 15  1  0  0  0  0
 15 16  1  0  0  0  0
 16 17  1  0  0  0  0
 17 18  1  0  0  0  0
 17 20  2  0  0  0  0
 18 19  1  0  0  0  0
M  END
>  <Name_Molregno>
392130

>  <Dopamine transporter>
3.23

>  <Norepinephrine transporter>
2.69

>  <Serotonin transporter>
2.33

$$$$
392132
  Marvin  02231216192D 0   1.00000     0.00000     0

 17 18  0  0  0  0  0  0  0  0999 V2000
    3.1345    3.1905    0.0000 O   0  0  0  0  0  0  0  0  0
    3.1345    2.3655    0.0000 C   0  0  0  0  0  0  0  0  0
    3.8489    1.9530    0.0000 C   0  0  0  0  0  0  0  0  0
    3.8489    1.1280    0.0000 C   0  0  0  0  0  0  0  0  0
    3.1345    0.7155    0.0000 C   0  0  0  0  0  0  0  0  0
    2.4200    1.1280    0.0000 C   0  0  0  0  0  0  0  0  0
    2.4200    1.9530    0.0000 C   0  0  0  0  0  0  0  0  0
    3.1345   -0.1095    0.0000 C   0  0  0  0  0  0  0  0  0
    3.8489   -0.5220    0.0000 C   0  0  0  0  0  0  0  0  0
    3.8489   -1.3470    0.0000 C   0  0  0  0  0  0  0  0  0
    3.1345   -1.7595    0.0000 C   0  0  0  0  0  0  0  0  0
    2.4200   -1.3470    0.0000 C   0  0  0  0  0  0  0  0  0
    2.4200   -0.5220    0.0000 C   0  0  0  0  0  0  0  0  0
    1.7055   -0.1095    0.0000 C   0  0  0  0  0  0  0  0  0
    1.7055    0.7155    0.0000 O   0  0  0  0  0  0  0  0  0
    0.9910    1.1280    0.0000 C   0  0  0  0  0  0  0  0  0
    0.9910   -0.5220    0.0000 O   0  0  0  0  0  0  0  0  0
  1  2  1  0  0  0  0
  2  3  4  0  0  0  0
  2  7  4  0  0  0  0
  3  4  4  0  0  0  0
  4  5  4  0  0  0  0
  5  6  4  0  0  0  0
  5  8  1  0  0  0  0
  6  7  4  0  0  0  0
  8  9  1  0  0  0  0
  8 13  2  0  0  0  0
  9 10  1  0  0  0  0
 10 11  1  0  0  0  0
 11 12  1  0  0  0  0
 12 13  1  0  0  0  0
 13 14  1  0  0  0  0
 14 15  1  0  0  0  0
 14 17  2  0  0  0  0
 15 16  1  0  0  0  0
M  END
>  <Name_Molregno>
392132

>  <Dopamine transporter>
3.64

>  <Norepinephrine transporter>
3.24

>  <Serotonin transporter>
3.24

$$$$
392134
  Marvin  02231216192D 0   1.00000     0.00000     0

 19 20  0  0  0  0  0  0  0  0999 V2000
    4.1758    1.2103    0.0000 O   0  0  0  0  0  0  0  0  0
    3.4613    0.7978    0.0000 C   0  0  0  0  0  0  0  0  0
    2.7469    1.2103    0.0000 O   0  0  0  0  0  0  0  0  0
    3.4613   -0.0272    0.0000 C   0  0  0  0  0  0  0  0  0
    4.1758   -0.4397    0.0000 C   0  0  0  0  0  0  0  0  0
    4.1758   -1.2647    0.0000 C   0  0  0  0  0  0  0  0  0
    3.4613   -1.6772    0.0000 C   0  0  0  0  0  0  0  0  0
    2.7469   -1.2647    0.0000 C   0  0  0  0  0  0  0  0  0
    2.7469   -0.4397    0.0000 C   0  0  0  0  0  0  0  0  0
    2.0324   -0.0272    0.0000 C   0  0  0  0  0  0  0  0  0
    1.3179   -0.4397    0.0000 C   0  0  0  0  0  0  0  0  0
    0.6035   -0.0272    0.0000 C   0  0  0  0  0  0  0  0  0
   -0.1110   -0.4397    0.0000 N   0  3  0  0  0  0  0  0  0
   -0.8255   -0.0272    0.0000 O   0  5  0  0  0  0  0  0  0
   -0.1110   -1.2647    0.0000 O   0  5  0  0  0  0  0  0  0
    0.6035    0.7978    0.0000 C   0  0  0  0  0  0  0  0  0
    1.3179    1.2103    0.0000 C   0  0  0  0  0  0  0  0  0
    2.0324    0.7978    0.0000 C   0  0  0  0  0  0  0  0  0
    4.1758    2.0353    0.0000 C   0  0  0  0  0  0  0  0  0
  1  2  1  0  0  0  0
  1 19  1  0  0  0  0
  2  3  2  0  0  0  0
  2  4  1  0  0  0  0
  4  5  1  0  0  0  0
  4  9  2  0  0  0  0
  5  6  1  0  0  0  0
  6  7  1  0  0  0  0
  7  8  1  0  0  0  0
  8  9  1  0  0  0  0
  9 10  1  0  0  0  0
 10 11  4  0  0  0  0
 10 18  4  0  0  0  0
 11 12  4  0  0  0  0
 12 13  1  0  0  0  0
 12 16  4  0  0  0  0
 13 14  1  0  0  0  0
 13 15  1  0  0  0  0
 16 17  4  0  0  0  0
 17 18  4  0  0  0  0
M  CHG  3  13   1  14  -1  15  -1
M  END
>  <Name_Molregno>
392134

>  <Dopamine transporter>
3.62

>  <Norepinephrine transporter>
3.92

>  <Serotonin transporter>
4.54

$$$$
392139
  Marvin  02231216192D 0   1.00000     0.00000     0

 19 20  0  0  0  0  0  0  0  0999 V2000
   -2.9856    1.1798    0.0000 Cl  0  0  0  0  0  0  0  0  0
   -2.9856    0.3548    0.0000 C   0  0  0  0  0  0  0  0  0
   -2.2711   -0.0577    0.0000 C   0  0  0  0  0  0  0  0  0
   -2.2711   -0.8827    0.0000 C   0  0  0  0  0  0  0  0  0
   -2.9856   -1.2952    0.0000 C   0  0  0  0  0  0  0  0  0
   -3.7001   -0.8827    0.0000 C   0  0  0  0  0  0  0  0  0
   -3.7001   -0.0577    0.0000 C   0  0  0  0  0  0  0  0  0
   -4.4145    0.3548    0.0000 Cl  0  0  0  0  0  0  0  0  0
   -1.5567   -1.2952    0.0000 C   0  0  0  0  0  0  0  0  0
   -0.8750   -0.8304    0.0000 C   0  0  0  0  0  0  0  0  0
   -0.0867   -1.0736    0.0000 C   0  0  0  0  0  0  0  0  0
    0.2147   -1.8416    0.0000 C   0  0  0  0  0  0  0  0  0
   -0.1978   -2.5560    0.0000 C   0  0  0  0  0  0  0  0  0
   -1.0135   -2.6790    0.0000 C   0  0  0  0  0  0  0  0  0
   -1.6183   -2.1179    0.0000 C   0  0  0  0  0  0  0  0  0
   -2.3863   -2.4193    0.0000 C   0  0  0  0  0  0  0  0  0
   -3.0313   -1.9049    0.0000 O   0  0  0  0  0  0  0  0  0
   -3.7993   -2.2063    0.0000 C   0  0  0  0  0  0  0  0  0
   -2.5092   -3.2351    0.0000 O   0  0  0  0  0  0  0  0  0
  1  2  1  0  0  0  0
  2  3  4  0  0  0  0
  2  7  4  0  0  0  0
  3  4  4  0  0  0  0
  4  5  4  0  0  0  0
  4  9  1  0  0  0  0
  5  6  4  0  0  0  0
  6  7  4  0  0  0  0
  7  8  1  0  0  0  0
  9 10  1  0  0  0  0
  9 15  2  0  0  0  0
 10 11  1  0  0  0  0
 11 12  1  0  0  0  0
 12 13  1  0  0  0  0
 13 14  1  0  0  0  0
 14 15  1  0  0  0  0
 15 16  1  0  0  0  0
 16 17  1  0  0  0  0
 16 19  2  0  0  0  0
 17 18  1  0  0  0  0
M  END
>  <Name_Molregno>
392139

>  <Dopamine transporter>
6.08

>  <Norepinephrine transporter>
5.08

>  <Serotonin transporter>
3.83

$$$$
392141
  Marvin  02231216192D 0   1.00000     0.00000     0

 18 19  0  0  0  0  0  0  0  0999 V2000
    3.1573    2.3691    0.0000 Cl  0  0  0  0  0  0  0  0  0
    3.1573    1.5441    0.0000 C   0  0  0  0  0  0  0  0  0
    3.8718    1.1316    0.0000 C   0  0  0  0  0  0  0  0  0
    3.8718    0.3066    0.0000 C   0  0  0  0  0  0  0  0  0
    3.1573   -0.1059    0.0000 C   0  0  0  0  0  0  0  0  0
    2.4428    0.3066    0.0000 C   0  0  0  0  0  0  0  0  0
    2.4428    1.1316    0.0000 C   0  0  0  0  0  0  0  0  0
    3.1573   -0.9309    0.0000 C   0  0  0  0  0  0  0  0  0
    3.9006   -1.2889    0.0000 C   0  0  0  0  0  0  0  0  0
    4.0842   -2.0932    0.0000 C   0  0  0  0  0  0  0  0  0
    3.5698   -2.7382    0.0000 C   0  0  0  0  0  0  0  0  0
    2.7448   -2.7382    0.0000 C   0  0  0  0  0  0  0  0  0
    2.2304   -2.0932    0.0000 C   0  0  0  0  0  0  0  0  0
    2.4140   -1.2889    0.0000 C   0  0  0  0  0  0  0  0  0
    1.7690   -0.7745    0.0000 C   0  0  0  0  0  0  0  0  0
    1.8920    0.0413    0.0000 O   0  0  0  0  0  0  0  0  0
    1.2469    0.5557    0.0000 C   0  0  0  0  0  0  0  0  0
    1.0010   -1.0759    0.0000 O   0  0  0  0  0  0  0  0  0
  1  2  1  0  0  0  0
  2  3  4  0  0  0  0
  2  7  4  0  0  0  0
  3  4  4  0  0  0  0
  4  5  4  0  0  0  0
  5  6  4  0  0  0  0
  5  8  1  0  0  0  0
  6  7  4  0  0  0  0
  8  9  1  0  0  0  0
  8 14  2  0  0  0  0
  9 10  1  0  0  0  0
 10 11  1  0  0  0  0
 11 12  1  0  0  0  0
 12 13  1  0  0  0  0
 13 14  1  0  0  0  0
 14 15  1  0  0  0  0
 15 16  1  0  0  0  0
 15 18  2  0  0  0  0
 16 17  1  0  0  0  0
M  END
>  <Name_Molregno>
392141

>  <Dopamine transporter>
5.24

>  <Norepinephrine transporter>
4.39

>  <Serotonin transporter>
3.15

$$$$
392143
  Marvin  02231216192D 0   1.00000     0.00000     0

 18 19  0  0  0  0  0  0  0  0999 V2000
    1.7321    2.0246    0.0000 Cl  0  0  0  0  0  0  0  0  0
    1.7321    1.1996    0.0000 C   0  0  0  0  0  0  0  0  0
    2.4466    0.7871    0.0000 C   0  0  0  0  0  0  0  0  0
    2.4466   -0.0379    0.0000 C   0  0  0  0  0  0  0  0  0
    1.7321   -0.4504    0.0000 C   0  0  0  0  0  0  0  0  0
    1.0177   -0.0379    0.0000 C   0  0  0  0  0  0  0  0  0
    1.0177    0.7871    0.0000 C   0  0  0  0  0  0  0  0  0
    3.1611   -0.4504    0.0000 C   0  0  0  0  0  0  0  0  0
    3.8427    0.0143    0.0000 C   0  0  0  0  0  0  0  0  0
    4.6311   -0.2289    0.0000 C   0  0  0  0  0  0  0  0  0
    4.9325   -0.9968    0.0000 C   0  0  0  0  0  0  0  0  0
    4.5200   -1.7113    0.0000 C   0  0  0  0  0  0  0  0  0
    3.7042   -1.8343    0.0000 C   0  0  0  0  0  0  0  0  0
    3.0994   -1.2731    0.0000 C   0  0  0  0  0  0  0  0  0
    2.3314   -1.5745    0.0000 C   0  0  0  0  0  0  0  0  0
    1.6864   -1.0601    0.0000 O   0  0  0  0  0  0  0  0  0
    0.9185   -1.3616    0.0000 C   0  0  0  0  0  0  0  0  0
    2.2085   -2.3903    0.0000 O   0  0  0  0  0  0  0  0  0
  1  2  1  0  0  0  0
  2  3  4  0  0  0  0
  2  7  4  0  0  0  0
  3  4  4  0  0  0  0
  4  5  4  0  0  0  0
  4  8  1  0  0  0  0
  5  6  4  0  0  0  0
  6  7  4  0  0  0  0
  8  9  1  0  0  0  0
  8 14  2  0  0  0  0
  9 10  1  0  0  0  0
 10 11  1  0  0  0  0
 11 12  1  0  0  0  0
 12 13  1  0  0  0  0
 13 14  1  0  0  0  0
 14 15  1  0  0  0  0
 15 16  1  0  0  0  0
 15 18  2  0  0  0  0
 16 17  1  0  0  0  0
M  END
>  <Name_Molregno>
392143

>  <Dopamine transporter>
5.04

>  <Norepinephrine transporter>
4.07

>  <Serotonin transporter>
3.33

$$$$
392144
  Marvin  02231216192D 0   1.00000     0.00000     0

 21 23  0  0  0  0  0  0  0  0999 V2000
    1.1996   -3.6368    0.0000 O   0  0  0  0  0  0  0  0  0
    1.0767   -2.8210    0.0000 C   0  0  0  0  0  0  0  0  0
    1.7217   -2.3066    0.0000 O   0  0  0  0  0  0  0  0  0
    0.3087   -2.5196    0.0000 C   0  0  0  0  0  0  0  0  0
   -0.2961   -3.0808    0.0000 C   0  0  0  0  0  0  0  0  0
   -1.1119   -2.9578    0.0000 C   0  0  0  0  0  0  0  0  0
   -1.5244   -2.2433    0.0000 C   0  0  0  0  0  0  0  0  0
   -1.2230   -1.4754    0.0000 C   0  0  0  0  0  0  0  0  0
   -0.4346   -1.2322    0.0000 C   0  0  0  0  0  0  0  0  0
    0.2470   -1.6969    0.0000 C   0  0  0  0  0  0  0  0  0
    0.9615   -1.2844    0.0000 C   0  0  0  0  0  0  0  0  0
    1.6760   -1.6969    0.0000 C   0  0  0  0  0  0  0  0  0
    2.3904   -1.2844    0.0000 C   0  0  0  0  0  0  0  0  0
    2.3904   -0.4594    0.0000 C   0  0  0  0  0  0  0  0  0
    1.6760   -0.0469    0.0000 C   0  0  0  0  0  0  0  0  0
    0.9615   -0.4594    0.0000 C   0  0  0  0  0  0  0  0  0
    3.1049   -0.0469    0.0000 C   0  0  0  0  0  0  0  0  0
    3.8194   -0.4594    0.0000 C   0  0  0  0  0  0  0  0  0
    3.8194   -1.2844    0.0000 C   0  0  0  0  0  0  0  0  0
    3.1049   -1.6969    0.0000 C   0  0  0  0  0  0  0  0  0
    1.9676   -3.9382    0.0000 C   0  0  0  0  0  0  0  0  0
  1  2  1  0  0  0  0
  1 21  1  0  0  0  0
  2  3  2  0  0  0  0
  2  4  1  0  0  0  0
  4  5  1  0  0  0  0
  4 10  2  0  0  0  0
  5  6  1  0  0  0  0
  6  7  1  0  0  0  0
  7  8  1  0  0  0  0
  8  9  1  0  0  0  0
  9 10  1  0  0  0  0
 10 11  1  0  0  0  0
 11 12  4  0  0  0  0
 11 16  4  0  0  0  0
 12 13  4  0  0  0  0
 13 14  4  0  0  0  0
 13 20  4  0  0  0  0
 14 15  4  0  0  0  0
 14 17  4  0  0  0  0
 15 16  4  0  0  0  0
 17 18  4  0  0  0  0
 18 19  4  0  0  0  0
 19 20  4  0  0  0  0
M  END
>  <Name_Molregno>
392144

>  <Dopamine transporter>
3.41

>  <Norepinephrine transporter>
4.17

>  <Serotonin transporter>
3.27

$$$$
392149
  Marvin  02231216192D 0   1.00000     0.00000     0

 23 25  0  0  0  0  0  0  0  0999 V2000
   -0.2725   -0.2110    0.0000 O   0  0  0  0  0  0  0  0  0
    0.4955   -0.5124    0.0000 C   0  0  0  0  0  0  0  0  0
    0.6184   -1.3282    0.0000 O   0  0  0  0  0  0  0  0  0
    1.1405    0.0020    0.0000 C   0  0  0  0  0  0  0  0  0
    0.9569    0.8063    0.0000 C   0  0  0  0  0  0  0  0  0
    1.4713    1.4513    0.0000 C   0  0  0  0  0  0  0  0  0
    2.2963    1.4513    0.0000 C   0  0  0  0  0  0  0  0  0
    2.8107    0.8063    0.0000 C   0  0  0  0  0  0  0  0  0
    2.6271    0.0020    0.0000 C   0  0  0  0  0  0  0  0  0
    1.8838   -0.3560    0.0000 C   0  0  0  0  0  0  0  0  0
    1.8838   -1.1810    0.0000 C   0  0  0  0  0  0  0  0  0
    2.5983   -1.5935    0.0000 C   0  0  0  0  0  0  0  0  0
    2.5983   -2.4185    0.0000 C   0  0  0  0  0  0  0  0  0
    1.8838   -2.8310    0.0000 C   0  0  0  0  0  0  0  0  0
    1.1693   -2.4185    0.0000 C   0  0  0  0  0  0  0  0  0
    1.1693   -1.5935    0.0000 C   0  0  0  0  0  0  0  0  0
    1.8838   -3.6560    0.0000 C   0  0  0  0  0  0  0  0  0
    2.5983   -4.0685    0.0000 C   0  0  0  0  0  0  0  0  0
    2.5983   -4.8935    0.0000 C   0  0  0  0  0  0  0  0  0
    1.8838   -5.3060    0.0000 C   0  0  0  0  0  0  0  0  0
    1.1693   -4.8935    0.0000 C   0  0  0  0  0  0  0  0  0
    1.1693   -4.0685    0.0000 C   0  0  0  0  0  0  0  0  0
   -0.9175   -0.7254    0.0000 C   0  0  0  0  0  0  0  0  0
  1  2  1  0  0  0  0
  1 23  1  0  0  0  0
  2  3  2  0  0  0  0
  2  4  1  0  0  0  0
  4  5  1  0  0  0  0
  4 10  2  0  0  0  0
  5  6  1  0  0  0  0
  6  7  1  0  0  0  0
  7  8  1  0  0  0  0
  8  9  1  0  0  0  0
  9 10  1  0  0  0  0
 10 11  1  0  0  0  0
 11 12  4  0  0  0  0
 11 16  4  0  0  0  0
 12 13  4  0  0  0  0
 13 14  4  0  0  0  0
 14 15  4  0  0  0  0
 14 17  1  0  0  0  0
 15 16  4  0  0  0  0
 17 18  4  0  0  0  0
 17 22  4  0  0  0  0
 18 19  4  0  0  0  0
 19 20  4  0  0  0  0
 20 21  4  0  0  0  0
 21 22  4  0  0  0  0
M  END
>  <Name_Molregno>
392149

>  <Dopamine transporter>
5.9

>  <Norepinephrine transporter>
5.15

>  <Serotonin transporter>
4.49

$$$$
392151
  Marvin  02231216192D 0   1.00000     0.00000     0

 17 18  0  0  0  0  0  0  0  0999 V2000
    1.7381    2.8449    0.0000 Cl  0  0  0  0  0  0  0  0  0
    1.7381    2.0199    0.0000 C   0  0  0  0  0  0  0  0  0
    2.4526    1.6074    0.0000 C   0  0  0  0  0  0  0  0  0
    2.4526    0.7824    0.0000 C   0  0  0  0  0  0  0  0  0
    1.7381    0.3699    0.0000 C   0  0  0  0  0  0  0  0  0
    1.0236    0.7824    0.0000 C   0  0  0  0  0  0  0  0  0
    1.0236    1.6074    0.0000 C   0  0  0  0  0  0  0  0  0
    0.3092    2.0199    0.0000 Cl  0  0  0  0  0  0  0  0  0
    3.1671    0.3699    0.0000 C   0  0  0  0  0  0  0  0  0
    3.8815    0.7824    0.0000 C   0  0  0  0  0  0  0  0  0
    4.5960    0.3699    0.0000 C   0  0  0  0  0  0  0  0  0
    4.5960   -0.4551    0.0000 C   0  0  0  0  0  0  0  0  0
    3.8815   -0.8676    0.0000 C   0  0  0  0  0  0  0  0  0
    3.1671   -0.4551    0.0000 C   0  0  0  0  0  0  0  0  0
    2.4526   -0.8676    0.0000 C   0  0  0  0  0  0  0  0  0
    1.7381   -0.4551    0.0000 C   0  0  0  0  0  0  0  0  0
    1.0236   -0.8676    0.0000 C   0  0  0  0  0  0  0  0  0
  1  2  1  0  0  0  0
  2  3  4  0  0  0  0
  2  7  4  0  0  0  0
  3  4  4  0  0  0  0
  4  5  4  0  0  0  0
  4  9  1  0  0  0  0
  5  6  4  0  0  0  0
  6  7  4  0  0  0  0
  7  8  1  0  0  0  0
  9 10  1  0  0  0  0
  9 14  2  0  0  0  0
 10 11  1  0  0  0  0
 11 12  1  0  0  0  0
 12 13  1  0  0  0  0
 13 14  1  0  0  0  0
 14 15  1  0  0  0  0
 15 16  2  0  0  0  0
 16 17  1  0  0  0  0
M  END
>  <Name_Molregno>
392151

>  <Dopamine transporter>
4.67

>  <Norepinephrine transporter>
3.59

>  <Serotonin transporter>
3.42

$$$$
392375
  Marvin  02231216192D 0   1.00000     0.00000     0

 22 24  0  0  1  0  0  0  0  0999 V2000
    4.1566   -1.0974    0.0000 O   0  0  0  0  0  0  0  0  0
    3.4421   -1.5099    0.0000 C   0  0  0  0  0  0  0  0  0
    2.7277   -1.0974    0.0000 O   0  0  0  0  0  0  0  0  0
    3.4421   -2.3349    0.0000 C   0  0  0  0  0  0  0  0  0
    4.1566   -2.7474    0.0000 C   0  0  0  0  0  0  0  0  0
    4.1566   -3.5724    0.0000 C   0  0  0  0  0  0  0  0  0
    3.4421   -3.9849    0.0000 C   0  0  0  0  0  0  0  0  0
    2.7277   -3.5724    0.0000 C   0  0  0  0  0  0  0  0  0
    2.7277   -2.7474    0.0000 C   0  0  0  0  0  0  0  0  0
    2.0132   -2.3349    0.0000 C   0  0  0  0  0  0  0  0  0
    1.2987   -2.7474    0.0000 C   0  0  0  0  0  0  0  0  0
    0.5843   -2.3349    0.0000 C   0  0  0  0  0  0  0  0  0
    0.5843   -1.5099    0.0000 C   0  0  0  0  0  0  0  0  0
    1.2987   -1.0974    0.0000 C   0  0  0  0  0  0  0  0  0
    2.0132   -1.5099    0.0000 C   0  0  0  0  0  0  0  0  0
   -0.1302   -1.0974    0.0000 C   0  0  0  0  0  0  0  0  0
   -0.8447   -1.5099    0.0000 C   0  0  0  0  0  0  0  0  0
   -1.5592   -1.0974    0.0000 C   0  0  0  0  0  0  0  0  0
   -1.5592   -0.2724    0.0000 C   0  0  0  0  0  0  0  0  0
   -0.8447    0.1401    0.0000 C   0  0  0  0  0  0  0  0  0
   -0.1302   -0.2724    0.0000 C   0  0  0  0  0  0  0  0  0
    4.1566   -0.2724    0.0000 C   0  0  0  0  0  0  0  0  0
  1  2  1  0  0  0  0
  1 22  1  0  0  0  0
  2  3  2  0  0  0  0
  2  4  1  0  0  0  0
  4  5  1  0  0  0  0
  4  9  1  0  0  0  0
  5  6  1  0  0  0  0
  6  7  1  0  0  0  0
  7  8  1  0  0  0  0
  8  9  1  0  0  0  0
  9 10  1  0  0  0  0
 10 11  4  0  0  0  0
 10 15  4  0  0  0  0
 11 12  4  0  0  0  0
 12 13  4  0  0  0  0
 13 14  4  0  0  0  0
 13 16  1  0  0  0  0
 14 15  4  0  0  0  0
 16 17  4  0  0  0  0
 16 21  4  0  0  0  0
 17 18  4  0  0  0  0
 18 19  4  0  0  0  0
 19 20  4  0  0  0  0
 20 21  4  0  0  0  0
M  END
>  <Name_Molregno>
392375

>  <Dopamine transporter>
3.08

>  <Norepinephrine transporter>
3.18

>  <Serotonin transporter>
3.41

$$$$
392376
  Marvin  02231216192D 0   1.00000     0.00000     0

 20 21  0  0  1  0  0  0  0  0999 V2000
    3.4613   -0.8774    0.0000 O   0  0  0  0  0  0  0  0  0
    2.7468   -1.2899    0.0000 C   0  0  0  0  0  0  0  0  0
    2.0324   -0.8774    0.0000 O   0  0  0  0  0  0  0  0  0
    2.7468   -2.1149    0.0000 C   0  0  0  0  0  0  0  0  0
    3.4613   -2.5274    0.0000 C   0  0  0  0  0  0  0  0  0
    3.4613   -3.3524    0.0000 C   0  0  0  0  0  0  0  0  0
    2.7468   -3.7649    0.0000 C   0  0  0  0  0  0  0  0  0
    2.0324   -3.3524    0.0000 C   0  0  0  0  0  0  0  0  0
    2.0324   -2.5274    0.0000 C   0  0  0  0  0  0  0  0  0
    1.3179   -2.1149    0.0000 C   0  0  0  0  0  0  0  0  0
    0.6034   -2.5274    0.0000 C   0  0  0  0  0  0  0  0  0
   -0.1110   -2.1149    0.0000 C   0  0  0  0  0  0  0  0  0
   -0.1110   -1.2899    0.0000 C   0  0  0  0  0  0  0  0  0
    0.6034   -0.8774    0.0000 C   0  0  0  0  0  0  0  0  0
    1.3179   -1.2899    0.0000 C   0  0  0  0  0  0  0  0  0
   -0.8255   -0.8774    0.0000 C   0  0  0  0  0  0  0  0  0
   -1.5400   -0.4649    0.0000 C   0  0  0  0  0  0  0  0  0
   -1.2380   -1.5918    0.0000 C   0  0  0  0  0  0  0  0  0
   -0.4130   -0.1629    0.0000 C   0  0  0  0  0  0  0  0  0
    3.4613   -0.0524    0.0000 C   0  0  0  0  0  0  0  0  0
  1  2  1  0  0  0  0
  1 20  1  0  0  0  0
  2  3  2  0  0  0  0
  2  4  1  0  0  0  0
  4  5  1  0  0  0  0
  4  9  1  0  0  0  0
  5  6  1  0  0  0  0
  6  7  1  0  0  0  0
  7  8  1  0  0  0  0
  8  9  1  0  0  0  0
  9 10  1  0  0  0  0
 10 11  4  0  0  0  0
 10 15  4  0  0  0  0
 11 12  4  0  0  0  0
 12 13  4  0  0  0  0
 13 14  4  0  0  0  0
 13 16  1  0  0  0  0
 14 15  4  0  0  0  0
 16 17  1  0  0  0  0
 16 18  1  0  0  0  0
 16 19  1  0  0  0  0
M  END
>  <Name_Molregno>
392376

>  <Dopamine transporter>
3.12

>  <Norepinephrine transporter>
3.17

>  <Serotonin transporter>
2.04

$$$$
392379
  Marvin  02231216192D 0   1.00000     0.00000     0

 21 22  0  0  1  0  0  0  0  0999 V2000
    2.3528    2.3925    0.0000 F   0  0  0  0  0  0  0  0  0
    3.0673    1.9800    0.0000 C   0  0  0  0  0  0  0  0  0
    2.6548    1.2655    0.0000 F   0  0  0  0  0  0  0  0  0
    3.4798    2.6945    0.0000 F   0  0  0  0  0  0  0  0  0
    3.7817    1.5675    0.0000 O   0  0  0  0  0  0  0  0  0
    3.7817    0.7425    0.0000 C   0  0  0  0  0  0  0  0  0
    4.4962    0.3300    0.0000 C   0  0  0  0  0  0  0  0  0
    4.4962   -0.4950    0.0000 C   0  0  0  0  0  0  0  0  0
    3.7817   -0.9075    0.0000 C   0  0  0  0  0  0  0  0  0
    3.0673   -0.4950    0.0000 C   0  0  0  0  0  0  0  0  0
    3.0673    0.3300    0.0000 C   0  0  0  0  0  0  0  0  0
    3.7817   -1.7325    0.0000 C   0  0  0  0  0  0  0  0  0
    4.4962   -2.1450    0.0000 C   0  0  0  0  0  0  0  0  0
    4.4962   -2.9700    0.0000 C   0  0  0  0  0  0  0  0  0
    3.7817   -3.3825    0.0000 C   0  0  0  0  0  0  0  0  0
    3.0673   -2.9700    0.0000 C   0  0  0  0  0  0  0  0  0
    3.0673   -2.1450    0.0000 C   0  0  0  0  0  0  0  0  0
    2.3528   -1.7325    0.0000 C   0  0  0  0  0  0  0  0  0
    2.3528   -0.9075    0.0000 O   0  0  0  0  0  0  0  0  0
    1.6383   -0.4950    0.0000 C   0  0  0  0  0  0  0  0  0
    1.6383   -2.1450    0.0000 O   0  0  0  0  0  0  0  0  0
  1  2  1  0  0  0  0
  2  3  1  0  0  0  0
  2  4  1  0  0  0  0
  2  5  1  0  0  0  0
  5  6  1  0  0  0  0
  6  7  4  0  0  0  0
  6 11  4  0  0  0  0
  7  8  4  0  0  0  0
  8  9  4  0  0  0  0
  9 10  4  0  0  0  0
  9 12  1  0  0  0  0
 10 11  4  0  0  0  0
 12 13  1  0  0  0  0
 12 17  1  0  0  0  0
 13 14  1  0  0  0  0
 14 15  1  0  0  0  0
 15 16  1  0  0  0  0
 16 17  1  0  0  0  0
 17 18  1  0  0  0  0
 18 19  1  0  0  0  0
 18 21  2  0  0  0  0
 19 20  1  0  0  0  0
M  END
>  <Name_Molregno>
392379

>  <Dopamine transporter>
2.93

>  <Norepinephrine transporter>
3.14

>  <Serotonin transporter>
3.22

$$$$
392380
  Marvin  02231216192D 0   1.00000     0.00000     0

 16 17  0  0  1  0  0  0  0  0999 V2000
    2.1990    2.6675    0.0000 O   0  0  0  0  0  0  0  0  0
    1.4845    2.2550    0.0000 C   0  0  0  0  0  0  0  0  0
    0.7700    2.6675    0.0000 O   0  0  0  0  0  0  0  0  0
    1.4845    1.4300    0.0000 C   0  0  0  0  0  0  0  0  0
    2.1990    1.0175    0.0000 C   0  0  0  0  0  0  0  0  0
    2.1990    0.1925    0.0000 C   0  0  0  0  0  0  0  0  0
    1.4845   -0.2200    0.0000 C   0  0  0  0  0  0  0  0  0
    0.7700    0.1925    0.0000 C   0  0  0  0  0  0  0  0  0
    0.7700    1.0175    0.0000 C   0  0  0  0  0  0  0  0  0
    0.0555    1.4300    0.0000 C   0  0  0  0  0  0  0  0  0
   -0.6589    1.0175    0.0000 C   0  0  0  0  0  0  0  0  0
   -1.3734    1.4300    0.0000 C   0  0  0  0  0  0  0  0  0
   -1.3734    2.2550    0.0000 C   0  0  0  0  0  0  0  0  0
   -0.6589    2.6675    0.0000 C   0  0  0  0  0  0  0  0  0
    0.0555    2.2550    0.0000 C   0  0  0  0  0  0  0  0  0
    2.1990    3.4925    0.0000 C   0  0  0  0  0  0  0  0  0
  1  2  1  0  0  0  0
  1 16  1  0  0  0  0
  2  3  2  0  0  0  0
  2  4  1  0  0  0  0
  4  5  1  0  0  0  0
  4  9  1  0  0  0  0
  5  6  1  0  0  0  0
  6  7  1  0  0  0  0
  7  8  1  0  0  0  0
  8  9  1  0  0  0  0
  9 10  1  0  0  0  0
 10 11  4  0  0  0  0
 10 15  4  0  0  0  0
 11 12  4  0  0  0  0
 12 13  4  0  0  0  0
 13 14  4  0  0  0  0
 14 15  4  0  0  0  0
M  END
>  <Name_Molregno>
392380

>  <Dopamine transporter>
3.01

>  <Norepinephrine transporter>
2.87

>  <Serotonin transporter>
2.82

$$$$
392382
  Marvin  02231216192D 0   1.00000     0.00000     0

 20 21  0  0  1  0  0  0  0  0999 V2000
    1.0701    1.7601    0.0000 F   0  0  0  0  0  0  0  0  0
    1.0701    0.9351    0.0000 C   0  0  0  0  0  0  0  0  0
    0.2451    0.9351    0.0000 F   0  0  0  0  0  0  0  0  0
    1.8951    0.9351    0.0000 F   0  0  0  0  0  0  0  0  0
    1.0701    0.1101    0.0000 C   0  0  0  0  0  0  0  0  0
    1.7846   -0.3024    0.0000 C   0  0  0  0  0  0  0  0  0
    1.7846   -1.1274    0.0000 C   0  0  0  0  0  0  0  0  0
    1.0701   -1.5399    0.0000 C   0  0  0  0  0  0  0  0  0
    0.3556   -1.1274    0.0000 C   0  0  0  0  0  0  0  0  0
    0.3556   -0.3024    0.0000 C   0  0  0  0  0  0  0  0  0
    2.4990   -1.5399    0.0000 C   0  0  0  0  0  0  0  0  0
    3.2135   -1.1274    0.0000 C   0  0  0  0  0  0  0  0  0
    3.9280   -1.5399    0.0000 C   0  0  0  0  0  0  0  0  0
    3.9280   -2.3649    0.0000 C   0  0  0  0  0  0  0  0  0
    3.2135   -2.7774    0.0000 C   0  0  0  0  0  0  0  0  0
    2.4990   -2.3649    0.0000 C   0  0  0  0  0  0  0  0  0
    1.7846   -2.7774    0.0000 C   0  0  0  0  0  0  0  0  0
    1.0701   -2.3649    0.0000 O   0  0  0  0  0  0  0  0  0
    0.3556   -2.7774    0.0000 C   0  0  0  0  0  0  0  0  0
    1.7846   -3.6024    0.0000 O   0  0  0  0  0  0  0  0  0
  1  2  1  0  0  0  0
  2  3  1  0  0  0  0
  2  4  1  0  0  0  0
  2  5  1  0  0  0  0
  5  6  4  0  0  0  0
  5 10  4  0  0  0  0
  6  7  4  0  0  0  0
  7  8  4  0  0  0  0
  7 11  1  0  0  0  0
  8  9  4  0  0  0  0
  9 10  4  0  0  0  0
 11 12  1  0  0  0  0
 11 16  1  0  0  0  0
 12 13  1  0  0  0  0
 13 14  1  0  0  0  0
 14 15  1  0  0  0  0
 15 16  1  0  0  0  0
 16 17  1  0  0  0  0
 17 18  1  0  0  0  0
 17 20  2  0  0  0  0
 18 19  1  0  0  0  0
M  END
>  <Name_Molregno>
392382

>  <Dopamine transporter>
3.24

>  <Norepinephrine transporter>
3

>  <Serotonin transporter>
2.72

$$$$
392385
  Marvin  02231216192D 0   1.00000     0.00000     0

 20 21  0  0  1  0  0  0  0  0999 V2000
    3.4294    2.6995    0.0000 F   0  0  0  0  0  0  0  0  0
    3.4294    1.8745    0.0000 C   0  0  0  0  0  0  0  0  0
    2.6044    1.8745    0.0000 F   0  0  0  0  0  0  0  0  0
    4.2544    1.8745    0.0000 F   0  0  0  0  0  0  0  0  0
    3.4294    1.0495    0.0000 C   0  0  0  0  0  0  0  0  0
    4.1439    0.6370    0.0000 C   0  0  0  0  0  0  0  0  0
    4.1439   -0.1880    0.0000 C   0  0  0  0  0  0  0  0  0
    3.4294   -0.6005    0.0000 C   0  0  0  0  0  0  0  0  0
    2.7150   -0.1880    0.0000 C   0  0  0  0  0  0  0  0  0
    2.7150    0.6370    0.0000 C   0  0  0  0  0  0  0  0  0
    3.4294   -1.4255    0.0000 C   0  0  0  0  0  0  0  0  0
    4.1439   -1.8380    0.0000 C   0  0  0  0  0  0  0  0  0
    4.1439   -2.6630    0.0000 C   0  0  0  0  0  0  0  0  0
    3.4294   -3.0755    0.0000 C   0  0  0  0  0  0  0  0  0
    2.7150   -2.6630    0.0000 C   0  0  0  0  0  0  0  0  0
    2.7150   -1.8380    0.0000 C   0  0  0  0  0  0  0  0  0
    2.0005   -1.4255    0.0000 C   0  0  0  0  0  0  0  0  0
    2.0005   -0.6005    0.0000 O   0  0  0  0  0  0  0  0  0
    1.2860   -0.1880    0.0000 C   0  0  0  0  0  0  0  0  0
    1.2860   -1.8380    0.0000 O   0  0  0  0  0  0  0  0  0
  1  2  1  0  0  0  0
  2  3  1  0  0  0  0
  2  4  1  0  0  0  0
  2  5  1  0  0  0  0
  5  6  4  0  0  0  0
  5 10  4  0  0  0  0
  6  7  4  0  0  0  0
  7  8  4  0  0  0  0
  8  9  4  0  0  0  0
  8 11  1  0  0  0  0
  9 10  4  0  0  0  0
 11 12  1  0  0  0  0
 11 16  1  0  0  0  0
 12 13  1  0  0  0  0
 13 14  1  0  0  0  0
 14 15  1  0  0  0  0
 15 16  1  0  0  0  0
 16 17  1  0  0  0  0
 17 18  1  0  0  0  0
 17 20  2  0  0  0  0
 18 19  1  0  0  0  0
M  END
>  <Name_Molregno>
392385

>  <Dopamine transporter>
3.65

>  <Norepinephrine transporter>
3.36

>  <Serotonin transporter>
3.73

$$$$
392386
  Marvin  02231216192D 0   1.00000     0.00000     0

 23 25  0  0  1  0  0  0  0  0999 V2000
   -0.2725   -0.2110    0.0000 O   0  0  0  0  0  0  0  0  0
    0.4955   -0.5124    0.0000 C   0  0  0  0  0  0  0  0  0
    0.6184   -1.3282    0.0000 O   0  0  0  0  0  0  0  0  0
    1.1405    0.0020    0.0000 C   0  0  0  0  0  0  0  0  0
    0.9569    0.8063    0.0000 C   0  0  0  0  0  0  0  0  0
    1.4713    1.4513    0.0000 C   0  0  0  0  0  0  0  0  0
    2.2963    1.4513    0.0000 C   0  0  0  0  0  0  0  0  0
    2.8107    0.8063    0.0000 C   0  0  0  0  0  0  0  0  0
    2.6271    0.0020    0.0000 C   0  0  0  0  0  0  0  0  0
    1.8838   -0.3560    0.0000 C   0  0  0  0  0  0  0  0  0
    1.8838   -1.1810    0.0000 C   0  0  0  0  0  0  0  0  0
    2.5983   -1.5935    0.0000 C   0  0  0  0  0  0  0  0  0
    2.5983   -2.4185    0.0000 C   0  0  0  0  0  0  0  0  0
    1.8838   -2.8310    0.0000 C   0  0  0  0  0  0  0  0  0
    1.1693   -2.4185    0.0000 C   0  0  0  0  0  0  0  0  0
    1.1693   -1.5935    0.0000 C   0  0  0  0  0  0  0  0  0
    1.8838   -3.6560    0.0000 C   0  0  0  0  0  0  0  0  0
    2.5983   -4.0685    0.0000 C   0  0  0  0  0  0  0  0  0
    2.5983   -4.8935    0.0000 C   0  0  0  0  0  0  0  0  0
    1.8838   -5.3060    0.0000 C   0  0  0  0  0  0  0  0  0
    1.1693   -4.8935    0.0000 C   0  0  0  0  0  0  0  0  0
    1.1693   -4.0685    0.0000 C   0  0  0  0  0  0  0  0  0
   -0.9175   -0.7254    0.0000 C   0  0  0  0  0  0  0  0  0
  1  2  1  0  0  0  0
  1 23  1  0  0  0  0
  2  3  2  0  0  0  0
  2  4  1  0  0  0  0
  4  5  1  0  0  0  0
  4 10  1  0  0  0  0
  5  6  1  0  0  0  0
  6  7  1  0  0  0  0
  7  8  1  0  0  0  0
  8  9  1  0  0  0  0
  9 10  1  0  0  0  0
 10 11  1  0  0  0  0
 11 12  4  0  0  0  0
 11 16  4  0  0  0  0
 12 13  4  0  0  0  0
 13 14  4  0  0  0  0
 14 15  4  0  0  0  0
 14 17  1  0  0  0  0
 15 16  4  0  0  0  0
 17 18  4  0  0  0  0
 17 22  4  0  0  0  0
 18 19  4  0  0  0  0
 19 20  4  0  0  0  0
 20 21  4  0  0  0  0
 21 22  4  0  0  0  0
M  END
>  <Name_Molregno>
392386

>  <Dopamine transporter>
3.5

>  <Norepinephrine transporter>
4.29

>  <Serotonin transporter>
4.14

$$$$
392389
  Marvin  02231216192D 0   1.00000     0.00000     0

 21 22  0  0  1  0  0  0  0  0999 V2000
   -0.5780   -0.5996    0.0000 O   0  0  0  0  0  0  0  0  0
    0.1900   -0.9010    0.0000 C   0  0  0  0  0  0  0  0  0
    0.3129   -1.7168    0.0000 O   0  0  0  0  0  0  0  0  0
    0.8350   -0.3866    0.0000 C   0  0  0  0  0  0  0  0  0
    0.6514    0.4177    0.0000 C   0  0  0  0  0  0  0  0  0
    1.1658    1.0627    0.0000 C   0  0  0  0  0  0  0  0  0
    1.9908    1.0627    0.0000 C   0  0  0  0  0  0  0  0  0
    2.5052    0.4177    0.0000 C   0  0  0  0  0  0  0  0  0
    2.3216   -0.3866    0.0000 C   0  0  0  0  0  0  0  0  0
    1.5783   -0.7446    0.0000 C   0  0  0  0  0  0  0  0  0
    1.5783   -1.5696    0.0000 C   0  0  0  0  0  0  0  0  0
    2.2928   -1.9821    0.0000 C   0  0  0  0  0  0  0  0  0
    2.2928   -2.8071    0.0000 C   0  0  0  0  0  0  0  0  0
    1.5783   -3.2196    0.0000 C   0  0  0  0  0  0  0  0  0
    0.8638   -2.8071    0.0000 C   0  0  0  0  0  0  0  0  0
    0.8638   -1.9821    0.0000 C   0  0  0  0  0  0  0  0  0
    1.5783   -4.0446    0.0000 C   0  0  0  0  0  0  0  0  0
    1.5783   -4.8696    0.0000 C   0  0  0  0  0  0  0  0  0
    2.4033   -4.0446    0.0000 C   0  0  0  0  0  0  0  0  0
    0.7533   -4.0446    0.0000 C   0  0  0  0  0  0  0  0  0
   -1.2230   -1.1140    0.0000 C   0  0  0  0  0  0  0  0  0
  1  2  1  0  0  0  0
  1 21  1  0  0  0  0
  2  3  2  0  0  0  0
  2  4  1  0  0  0  0
  4  5  1  0  0  0  0
  4 10  1  0  0  0  0
  5  6  1  0  0  0  0
  6  7  1  0  0  0  0
  7  8  1  0  0  0  0
  8  9  1  0  0  0  0
  9 10  1  0  0  0  0
 10 11  1  0  0  0  0
 11 12  4  0  0  0  0
 11 16  4  0  0  0  0
 12 13  4  0  0  0  0
 13 14  4  0  0  0  0
 14 15  4  0  0  0  0
 14 17  1  0  0  0  0
 15 16  4  0  0  0  0
 17 18  1  0  0  0  0
 17 19  1  0  0  0  0
 17 20  1  0  0  0  0
M  END
>  <Name_Molregno>
392389

>  <Dopamine transporter>
2.94

>  <Norepinephrine transporter>
4.03

>  <Serotonin transporter>
2.74

$$$$
392394
  Marvin  02231216192D 0   1.00000     0.00000     0

 21 22  0  0  0  0  0  0  0  0999 V2000
   -0.5780   -0.5996    0.0000 O   0  0  0  0  0  0  0  0  0
    0.1900   -0.9010    0.0000 C   0  0  0  0  0  0  0  0  0
    0.3129   -1.7168    0.0000 O   0  0  0  0  0  0  0  0  0
    0.8350   -0.3866    0.0000 C   0  0  0  0  0  0  0  0  0
    0.6514    0.4177    0.0000 C   0  0  0  0  0  0  0  0  0
    1.1658    1.0627    0.0000 C   0  0  0  0  0  0  0  0  0
    1.9908    1.0627    0.0000 C   0  0  0  0  0  0  0  0  0
    2.5052    0.4177    0.0000 C   0  0  0  0  0  0  0  0  0
    2.3216   -0.3866    0.0000 C   0  0  0  0  0  0  0  0  0
    1.5783   -0.7446    0.0000 C   0  0  0  0  0  0  0  0  0
    1.5783   -1.5696    0.0000 C   0  0  0  0  0  0  0  0  0
    2.2928   -1.9821    0.0000 C   0  0  0  0  0  0  0  0  0
    2.2928   -2.8071    0.0000 C   0  0  0  0  0  0  0  0  0
    1.5783   -3.2196    0.0000 C   0  0  0  0  0  0  0  0  0
    0.8638   -2.8071    0.0000 C   0  0  0  0  0  0  0  0  0
    0.8638   -1.9821    0.0000 C   0  0  0  0  0  0  0  0  0
    1.5783   -4.0446    0.0000 C   0  0  0  0  0  0  0  0  0
    1.5783   -4.8696    0.0000 C   0  0  0  0  0  0  0  0  0
    2.4033   -4.0446    0.0000 C   0  0  0  0  0  0  0  0  0
    0.7533   -4.0446    0.0000 C   0  0  0  0  0  0  0  0  0
   -1.2230   -1.1140    0.0000 C   0  0  0  0  0  0  0  0  0
  1  2  1  0  0  0  0
  1 21  1  0  0  0  0
  2  3  2  0  0  0  0
  2  4  1  0  0  0  0
  4  5  1  0  0  0  0
  4 10  2  0  0  0  0
  5  6  1  0  0  0  0
  6  7  1  0  0  0  0
  7  8  1  0  0  0  0
  8  9  1  0  0  0  0
  9 10  1  0  0  0  0
 10 11  1  0  0  0  0
 11 12  4  0  0  0  0
 11 16  4  0  0  0  0
 12 13  4  0  0  0  0
 13 14  4  0  0  0  0
 14 15  4  0  0  0  0
 14 17  1  0  0  0  0
 15 16  4  0  0  0  0
 17 18  1  0  0  0  0
 17 19  1  0  0  0  0
 17 20  1  0  0  0  0
M  END
>  <Name_Molregno>
392394

>  <Dopamine transporter>
3.05

>  <Norepinephrine transporter>
4.21

>  <Serotonin transporter>
2.98

$$$$
396256
  Marvin  02231216192D 0   1.00000     0.00000     0

 20 22  0  0  1  0  0  0  0  0999 V2000
    2.5771   -3.4777    0.0000 F   0  0  0  0  0  0  0  0  0
    2.9903   -2.7636    0.0000 C   0  0  0  0  0  0  0  0  0
    2.5785   -2.0487    0.0000 C   0  0  0  0  0  0  0  0  0
    2.9917   -1.3347    0.0000 C   0  0  0  0  0  0  0  0  0
    3.8167   -1.3355    0.0000 C   0  0  0  0  0  0  0  0  0
    4.2285   -2.0503    0.0000 C   0  0  0  0  0  0  0  0  0
    3.8153   -2.7644    0.0000 C   0  0  0  0  0  0  0  0  0
    4.2271   -3.4793    0.0000 C   0  0  0  0  0  0  0  0  0
    2.5799   -0.6198    0.0000 C   0  0  0  0  0  0  0  0  0
    2.4417    0.1976    0.0000 C   0  0  0  0  0  0  0  0  0
    1.5129    0.1821    0.0000 C   0  0  0  0  0  0  0  0  0
    0.9523    0.6220    0.0000 N   0  0  0  0  0  0  0  0  0
    1.0920   -0.1911    0.0000 C   0  0  0  0  0  0  0  0  0
    0.5721   -0.9034    0.0000 C   0  0  0  0  0  0  0  0  0
    1.1924   -0.5265    0.0000 C   0  0  0  0  0  0  0  0  0
    2.0637   -0.1911    0.0000 C   0  0  0  0  0  0  0  0  0
    1.7835   -0.9670    0.0000 C   0  0  0  0  0  0  0  0  0
    0.9714   -1.1124    0.0000 O   0  0  0  0  0  0  0  0  0
    0.6912   -1.8883    0.0000 C   0  0  0  0  0  0  0  0  0
    2.3154   -1.5977    0.0000 O   0  0  0  0  0  0  0  0  0
  1  2  1  0  0  0  0
  2  3  4  0  0  0  0
  2  7  4  0  0  0  0
  3  4  4  0  0  0  0
  4  5  4  0  0  0  0
  4  9  1  0  0  0  0
  5  6  4  0  0  0  0
  6  7  4  0  0  0  0
  7  8  1  0  0  0  0
  9 10  1  0  0  0  0
  9 16  1  0  0  0  0
 10 11  1  0  0  0  0
 11 12  1  0  0  0  0
 11 15  1  0  0  0  0
 12 13  1  0  0  0  0
 13 14  1  0  0  0  0
 13 16  1  0  0  0  0
 14 15  1  0  0  0  0
 16 17  1  0  0  0  0
 17 18  1  0  0  0  0
 17 20  2  0  0  0  0
 18 19  1  0  0  0  0
M  END
>  <Name_Molregno>
396256

>  <Dopamine transporter>
8.19

>  <Norepinephrine transporter>
8.75

>  <Serotonin transporter>
7.37

$$$$
396260
  Marvin  02231216192D 0   1.00000     0.00000     0

 19 21  0  0  1  0  0  0  0  0999 V2000
    1.9869    0.4701    0.0000 O   0  0  0  0  0  0  0  0  0
    1.1737    0.6095    0.0000 C   0  0  0  0  0  0  0  0  0
    0.8878    1.3833    0.0000 O   0  0  0  0  0  0  0  0  0
    0.6465   -0.0251    0.0000 C   0  0  0  0  0  0  0  0  0
   -0.2823   -0.0406    0.0000 C   0  0  0  0  0  0  0  0  0
   -0.8429    0.3993    0.0000 N   0  0  0  0  0  0  0  0  0
   -0.7032   -0.4138    0.0000 C   0  0  0  0  0  0  0  0  0
    0.2685   -0.4138    0.0000 C   0  0  0  0  0  0  0  0  0
    0.7847   -0.8425    0.0000 C   0  0  0  0  0  0  0  0  0
    1.1965   -1.5574    0.0000 C   0  0  0  0  0  0  0  0  0
    2.0215   -1.5582    0.0000 C   0  0  0  0  0  0  0  0  0
    2.4333   -2.2730    0.0000 C   0  0  0  0  0  0  0  0  0
    2.0201   -2.9871    0.0000 C   0  0  0  0  0  0  0  0  0
    1.1951   -2.9863    0.0000 C   0  0  0  0  0  0  0  0  0
    0.7833   -2.2714    0.0000 C   0  0  0  0  0  0  0  0  0
    2.4319   -3.7020    0.0000 C   0  0  0  0  0  0  0  0  0
   -1.2231   -1.1261    0.0000 C   0  0  0  0  0  0  0  0  0
   -0.6028   -0.7492    0.0000 C   0  0  0  0  0  0  0  0  0
    2.5141    1.1047    0.0000 C   0  0  0  0  0  0  0  0  0
  1  2  1  0  0  0  0
  1 19  1  0  0  0  0
  2  3  2  0  0  0  0
  2  4  1  0  0  0  0
  4  5  1  0  0  0  0
  4  9  1  0  0  0  0
  5  6  1  0  0  0  0
  5 18  1  0  0  0  0
  6  7  1  0  0  0  0
  7  8  1  0  0  0  0
  7 17  1  0  0  0  0
  8  9  1  0  0  0  0
  9 10  1  0  0  0  0
 10 11  4  0  0  0  0
 10 15  4  0  0  0  0
 11 12  4  0  0  0  0
 12 13  4  0  0  0  0
 13 14  4  0  0  0  0
 13 16  1  0  0  0  0
 14 15  4  0  0  0  0
 17 18  1  0  0  0  0
M  END
>  <Name_Molregno>
396260

>  <Dopamine transporter>
7.94

>  <Norepinephrine transporter>
8.31

>  <Serotonin transporter>
6.87

$$$$
396264
  Marvin  02231216192D 0   1.00000     0.00000     0

 20 22  0  0  1  0  0  0  0  0999 V2000
    2.0981    0.6087    0.0000 O   0  0  0  0  0  0  0  0  0
    1.2849    0.7481    0.0000 C   0  0  0  0  0  0  0  0  0
    0.9990    1.5219    0.0000 O   0  0  0  0  0  0  0  0  0
    0.7577    0.1135    0.0000 C   0  0  0  0  0  0  0  0  0
   -0.1711    0.0980    0.0000 C   0  0  0  0  0  0  0  0  0
   -0.7317    0.5379    0.0000 N   0  0  0  0  0  0  0  0  0
   -0.5920   -0.2752    0.0000 C   0  0  0  0  0  0  0  0  0
    0.3797   -0.2752    0.0000 C   0  0  0  0  0  0  0  0  0
    0.8959   -0.7039    0.0000 C   0  0  0  0  0  0  0  0  0
    1.3077   -1.4188    0.0000 C   0  0  0  0  0  0  0  0  0
    2.1327   -1.4196    0.0000 C   0  0  0  0  0  0  0  0  0
    2.5445   -2.1344    0.0000 C   0  0  0  0  0  0  0  0  0
    2.1313   -2.8485    0.0000 C   0  0  0  0  0  0  0  0  0
    1.3063   -2.8477    0.0000 C   0  0  0  0  0  0  0  0  0
    0.8945   -2.1328    0.0000 C   0  0  0  0  0  0  0  0  0
    2.5431   -3.5634    0.0000 C   0  0  0  0  0  0  0  0  0
    2.1299   -4.2775    0.0000 C   0  0  0  0  0  0  0  0  0
   -1.1119   -0.9875    0.0000 C   0  0  0  0  0  0  0  0  0
   -0.4916   -0.6106    0.0000 C   0  0  0  0  0  0  0  0  0
    2.6253    1.2432    0.0000 C   0  0  0  0  0  0  0  0  0
  1  2  1  0  0  0  0
  1 20  1  0  0  0  0
  2  3  2  0  0  0  0
  2  4  1  0  0  0  0
  4  5  1  0  0  0  0
  4  9  1  0  0  0  0
  5  6  1  0  0  0  0
  5 19  1  0  0  0  0
  6  7  1  0  0  0  0
  7  8  1  0  0  0  0
  7 18  1  0  0  0  0
  8  9  1  0  0  0  0
  9 10  1  0  0  0  0
 10 11  4  0  0  0  0
 10 15  4  0  0  0  0
 11 12  4  0  0  0  0
 12 13  4  0  0  0  0
 13 14  4  0  0  0  0
 13 16  1  0  0  0  0
 14 15  4  0  0  0  0
 16 17  2  0  0  0  0
 18 19  1  0  0  0  0
M  END
>  <Name_Molregno>
396264

>  <Dopamine transporter>
8

>  <Norepinephrine transporter>
8.33

>  <Serotonin transporter>
8.04

$$$$
396267
  Marvin  02231216192D 0   1.00000     0.00000     0

 20 22  0  0  1  0  0  0  0  0999 V2000
    2.0742    0.6509    0.0000 O   0  0  0  0  0  0  0  0  0
    1.2610    0.7903    0.0000 C   0  0  0  0  0  0  0  0  0
    0.9751    1.5642    0.0000 O   0  0  0  0  0  0  0  0  0
    0.7338    0.1557    0.0000 C   0  0  0  0  0  0  0  0  0
   -0.1950    0.1402    0.0000 C   0  0  0  0  0  0  0  0  0
   -0.7556    0.5801    0.0000 N   0  0  0  0  0  0  0  0  0
   -0.6159   -0.2330    0.0000 C   0  0  0  0  0  0  0  0  0
    0.3558   -0.2330    0.0000 C   0  0  0  0  0  0  0  0  0
    0.8720   -0.6617    0.0000 C   0  0  0  0  0  0  0  0  0
    1.2838   -1.3765    0.0000 C   0  0  0  0  0  0  0  0  0
    2.1088   -1.3773    0.0000 C   0  0  0  0  0  0  0  0  0
    2.5206   -2.0922    0.0000 C   0  0  0  0  0  0  0  0  0
    2.1073   -2.8063    0.0000 C   0  0  0  0  0  0  0  0  0
    1.2823   -2.8055    0.0000 C   0  0  0  0  0  0  0  0  0
    0.8706   -2.0906    0.0000 C   0  0  0  0  0  0  0  0  0
    2.5191   -3.5212    0.0000 C   0  0  0  0  0  0  0  0  0
    2.9309   -4.2360    0.0000 C   0  0  0  0  0  0  0  0  0
   -1.1358   -0.9453    0.0000 C   0  0  0  0  0  0  0  0  0
   -0.5155   -0.5684    0.0000 C   0  0  0  0  0  0  0  0  0
    2.6014    1.2855    0.0000 C   0  0  0  0  0  0  0  0  0
  1  2  1  0  0  0  0
  1 20  1  0  0  0  0
  2  3  2  0  0  0  0
  2  4  1  0  0  0  0
  4  5  1  0  0  0  0
  4  9  1  0  0  0  0
  5  6  1  0  0  0  0
  5 19  1  0  0  0  0
  6  7  1  0  0  0  0
  7  8  1  0  0  0  0
  7 18  1  0  0  0  0
  8  9  1  0  0  0  0
  9 10  1  0  0  0  0
 10 11  4  0  0  0  0
 10 15  4  0  0  0  0
 11 12  4  0  0  0  0
 12 13  4  0  0  0  0
 13 14  4  0  0  0  0
 13 16  1  0  0  0  0
 14 15  4  0  0  0  0
 16 17  3  0  0  0  0
 18 19  1  0  0  0  0
M  END
>  <Name_Molregno>
396267

>  <Dopamine transporter>
8.65

>  <Norepinephrine transporter>
8.73

>  <Serotonin transporter>
8.46

$$$$
399913
  Marvin  02231216192D 0   1.00000     0.00000     0

 28 30  0  0  0  0  0  0  0  0999 V2000
   -1.5271    6.2736    0.0000 S   0  0  0  0  0  0  0  0  0
   -2.2416    6.6861    0.0000 C   0  0  0  0  0  0  0  0  0
   -1.5271    5.4486    0.0000 C   0  0  0  0  0  0  0  0  0
   -0.8127    5.0361    0.0000 C   0  0  0  0  0  0  0  0  0
   -0.8127    4.2111    0.0000 C   0  0  0  0  0  0  0  0  0
   -1.5271    3.7986    0.0000 C   0  0  0  0  0  0  0  0  0
   -1.5271    2.9736    0.0000 O   0  0  0  0  0  0  0  0  0
   -2.2416    2.5611    0.0000 C   0  0  0  0  0  0  0  0  0
   -2.2416    1.7361    0.0000 C   0  0  0  0  0  0  0  0  0
   -2.9561    1.3236    0.0000 C   0  0  0  0  0  0  0  0  0
   -3.6705    1.7361    0.0000 C   0  0  0  0  0  0  0  0  0
   -3.6705    2.5611    0.0000 C   0  0  0  0  0  0  0  0  0
   -2.9561    2.9736    0.0000 C   0  0  0  0  0  0  0  0  0
   -2.9561    3.7986    0.0000 C   0  0  0  0  0  0  0  0  0
   -3.6705    4.2111    0.0000 N   0  0  0  0  0  0  0  0  0
   -3.6705    5.0361    0.0000 C   0  0  0  0  0  0  0  0  0
   -4.3850    1.3236    0.0000 C   0  0  0  0  0  0  0  0  0
   -5.0995    0.9111    0.0000 C   0  0  0  0  0  0  0  0  0
   -5.8140    0.4986    0.0000 C   0  0  0  0  0  0  0  0  0
   -5.8140   -0.3264    0.0000 C   0  0  0  0  0  0  0  0  0
   -6.5284   -0.7389    0.0000 N   0  0  0  0  0  0  0  0  0
   -6.5284   -1.5639    0.0000 C   0  0  0  0  0  0  0  0  0
   -7.2429   -1.9764    0.0000 C   0  0  0  0  0  0  0  0  0
   -7.9574   -1.5639    0.0000 O   0  0  0  0  0  0  0  0  0
   -7.9574   -0.7389    0.0000 C   0  0  0  0  0  0  0  0  0
   -7.2429   -0.3264    0.0000 C   0  0  0  0  0  0  0  0  0
   -2.2416    4.2111    0.0000 C   0  0  0  0  0  0  0  0  0
   -2.2416    5.0361    0.0000 C   0  0  0  0  0  0  0  0  0
  1  2  1  0  0  0  0
  1  3  1  0  0  0  0
  3  4  4  0  0  0  0
  3 28  4  0  0  0  0
  4  5  4  0  0  0  0
  5  6  4  0  0  0  0
  6  7  1  0  0  0  0
  6 27  4  0  0  0  0
  7  8  1  0  0  0  0
  8  9  4  0  0  0  0
  8 13  4  0  0  0  0
  9 10  4  0  0  0  0
 10 11  4  0  0  0  0
 11 12  4  0  0  0  0
 11 17  1  0  0  0  0
 12 13  4  0  0  0  0
 13 14  1  0  0  0  0
 14 15  1  0  0  0  0
 15 16  1  0  0  0  0
 17 18  3  0  0  0  0
 18 19  1  0  0  0  0
 19 20  1  0  0  0  0
 20 21  1  0  0  0  0
 21 22  1  0  0  0  0
 21 26  1  0  0  0  0
 22 23  1  0  0  0  0
 23 24  1  0  0  0  0
 24 25  1  0  0  0  0
 25 26  1  0  0  0  0
 27 28  4  0  0  0  0
M  END
>  <Name_Molregno>
399913

>  <Dopamine transporter>
6.15

>  <HISTAMINE H3>
7.96

>  <Norepinephrine transporter>
6.54

>  <Serotonin transporter>
9.1

$$$$
399923
  Marvin  02231216192D 0   1.00000     0.00000     0

 29 31  0  0  0  0  0  0  0  0999 V2000
   -1.4308    6.1234    0.0000 S   0  0  0  0  0  0  0  0  0
   -2.1452    6.5359    0.0000 C   0  0  0  0  0  0  0  0  0
   -1.4308    5.2984    0.0000 C   0  0  0  0  0  0  0  0  0
   -0.7163    4.8859    0.0000 C   0  0  0  0  0  0  0  0  0
   -0.7163    4.0609    0.0000 C   0  0  0  0  0  0  0  0  0
   -1.4308    3.6484    0.0000 C   0  0  0  0  0  0  0  0  0
   -1.4308    2.8234    0.0000 O   0  0  0  0  0  0  0  0  0
   -2.1452    2.4109    0.0000 C   0  0  0  0  0  0  0  0  0
   -2.1452    1.5859    0.0000 C   0  0  0  0  0  0  0  0  0
   -2.8597    1.1734    0.0000 C   0  0  0  0  0  0  0  0  0
   -3.5742    1.5859    0.0000 C   0  0  0  0  0  0  0  0  0
   -3.5742    2.4109    0.0000 C   0  0  0  0  0  0  0  0  0
   -2.8597    2.8234    0.0000 C   0  0  0  0  0  0  0  0  0
   -2.8597    3.6484    0.0000 C   0  0  0  0  0  0  0  0  0
   -3.5742    4.0609    0.0000 N   0  0  0  0  0  0  0  0  0
   -3.5742    4.8859    0.0000 C   0  0  0  0  0  0  0  0  0
   -4.2886    1.1734    0.0000 C   0  0  0  0  0  0  0  0  0
   -5.0031    0.7609    0.0000 C   0  0  0  0  0  0  0  0  0
   -5.7176    0.3484    0.0000 C   0  0  0  0  0  0  0  0  0
   -5.7176   -0.4766    0.0000 C   0  0  0  0  0  0  0  0  0
   -6.4321   -0.8891    0.0000 N   0  0  0  0  0  0  0  0  0
   -6.4321   -1.7141    0.0000 C   0  0  0  0  0  0  0  0  0
   -7.1465   -2.1266    0.0000 C   0  0  0  0  0  0  0  0  0
   -7.8610   -1.7141    0.0000 O   0  0  0  0  0  0  0  0  0
   -7.8610   -0.8891    0.0000 C   0  0  0  0  0  0  0  0  0
   -7.1465   -0.4766    0.0000 C   0  0  0  0  0  0  0  0  0
   -2.1452    4.0609    0.0000 C   0  0  0  0  0  0  0  0  0
   -2.1452    4.8859    0.0000 C   0  0  0  0  0  0  0  0  0
   -2.8597    5.2984    0.0000 C   0  0  0  0  0  0  0  0  0
  1  2  1  0  0  0  0
  1  3  1  0  0  0  0
  3  4  4  0  0  0  0
  3 28  4  0  0  0  0
  4  5  4  0  0  0  0
  5  6  4  0  0  0  0
  6  7  1  0  0  0  0
  6 27  4  0  0  0  0
  7  8  1  0  0  0  0
  8  9  4  0  0  0  0
  8 13  4  0  0  0  0
  9 10  4  0  0  0  0
 10 11  4  0  0  0  0
 11 12  4  0  0  0  0
 11 17  1  0  0  0  0
 12 13  4  0  0  0  0
 13 14  1  0  0  0  0
 14 15  1  0  0  0  0
 15 16  1  0  0  0  0
 17 18  3  0  0  0  0
 18 19  1  0  0  0  0
 19 20  1  0  0  0  0
 20 21  1  0  0  0  0
 21 22  1  0  0  0  0
 21 26  1  0  0  0  0
 22 23  1  0  0  0  0
 23 24  1  0  0  0  0
 24 25  1  0  0  0  0
 25 26  1  0  0  0  0
 27 28  4  0  0  0  0
 28 29  1  0  0  0  0
M  END
>  <Name_Molregno>
399923

>  <Dopamine transporter>
6

>  <HISTAMINE H3>
7.96

>  <Norepinephrine transporter>
6.62

>  <Serotonin transporter>
8.72

$$$$
399942
  Marvin  02231216192D 0   1.00000     0.00000     0

 29 31  0  0  0  0  0  0  0  0999 V2000
   -1.5706    6.4196    0.0000 S   0  0  0  0  0  0  0  0  0
   -2.2851    6.8321    0.0000 C   0  0  0  0  0  0  0  0  0
   -1.5706    5.5946    0.0000 C   0  0  0  0  0  0  0  0  0
   -0.8561    5.1821    0.0000 C   0  0  0  0  0  0  0  0  0
   -0.8561    4.3571    0.0000 C   0  0  0  0  0  0  0  0  0
   -1.5706    3.9446    0.0000 C   0  0  0  0  0  0  0  0  0
   -1.5706    3.1196    0.0000 O   0  0  0  0  0  0  0  0  0
   -2.2851    2.7071    0.0000 C   0  0  0  0  0  0  0  0  0
   -2.2851    1.8821    0.0000 C   0  0  0  0  0  0  0  0  0
   -2.9995    1.4696    0.0000 C   0  0  0  0  0  0  0  0  0
   -3.7140    1.8821    0.0000 C   0  0  0  0  0  0  0  0  0
   -3.7140    2.7071    0.0000 C   0  0  0  0  0  0  0  0  0
   -2.9995    3.1196    0.0000 C   0  0  0  0  0  0  0  0  0
   -2.9995    3.9446    0.0000 C   0  0  0  0  0  0  0  0  0
   -3.7140    4.3571    0.0000 N   0  0  0  0  0  0  0  0  0
   -3.7140    5.1821    0.0000 C   0  0  0  0  0  0  0  0  0
   -4.4285    1.4696    0.0000 C   0  0  0  0  0  0  0  0  0
   -5.1429    1.0571    0.0000 C   0  0  0  0  0  0  0  0  0
   -5.8574    0.6446    0.0000 C   0  0  0  0  0  0  0  0  0
   -5.8574   -0.1804    0.0000 C   0  0  0  0  0  0  0  0  0
   -6.5719   -0.5929    0.0000 N   0  0  0  0  0  0  0  0  0
   -6.5719   -1.4179    0.0000 C   0  0  0  0  0  0  0  0  0
   -7.2864   -1.8304    0.0000 C   0  0  0  0  0  0  0  0  0
   -8.0008   -1.4179    0.0000 C   0  0  0  0  0  0  0  0  0
   -8.7153   -1.8304    0.0000 F   0  0  0  0  0  0  0  0  0
   -8.0008   -0.5929    0.0000 C   0  0  0  0  0  0  0  0  0
   -7.2864   -0.1804    0.0000 C   0  0  0  0  0  0  0  0  0
   -2.2851    4.3571    0.0000 C   0  0  0  0  0  0  0  0  0
   -2.2851    5.1821    0.0000 C   0  0  0  0  0  0  0  0  0
  1  2  1  0  0  0  0
  1  3  1  0  0  0  0
  3  4  4  0  0  0  0
  3 29  4  0  0  0  0
  4  5  4  0  0  0  0
  5  6  4  0  0  0  0
  6  7  1  0  0  0  0
  6 28  4  0  0  0  0
  7  8  1  0  0  0  0
  8  9  4  0  0  0  0
  8 13  4  0  0  0  0
  9 10  4  0  0  0  0
 10 11  4  0  0  0  0
 11 12  4  0  0  0  0
 11 17  1  0  0  0  0
 12 13  4  0  0  0  0
 13 14  1  0  0  0  0
 14 15  1  0  0  0  0
 15 16  1  0  0  0  0
 17 18  3  0  0  0  0
 18 19  1  0  0  0  0
 19 20  1  0  0  0  0
 20 21  1  0  0  0  0
 21 22  1  0  0  0  0
 21 27  1  0  0  0  0
 22 23  1  0  0  0  0
 23 24  1  0  0  0  0
 24 25  1  0  0  0  0
 24 26  1  0  0  0  0
 26 27  1  0  0  0  0
 28 29  4  0  0  0  0
M  END
>  <Name_Molregno>
399942

>  <Dopamine transporter>
6.72

>  <HISTAMINE H3>
8.22

>  <Norepinephrine transporter>
7.02

>  <Serotonin transporter>
9.05

$$$$
399962
  Marvin  02231216192D 0   1.00000     0.00000     0

 27 29  0  0  0  0  0  0  0  0999 V2000
   -7.7068    2.5525    0.0000 S   0  0  0  0  0  0  0  0  0
   -7.7068    1.7275    0.0000 C   0  0  0  0  0  0  0  0  0
   -6.9923    2.9650    0.0000 C   0  0  0  0  0  0  0  0  0
   -6.9923    3.7900    0.0000 C   0  0  0  0  0  0  0  0  0
   -6.2779    4.2025    0.0000 C   0  0  0  0  0  0  0  0  0
   -5.5634    3.7900    0.0000 C   0  0  0  0  0  0  0  0  0
   -4.8489    4.2025    0.0000 O   0  0  0  0  0  0  0  0  0
   -4.1344    3.7900    0.0000 C   0  0  0  0  0  0  0  0  0
   -3.4200    4.2025    0.0000 C   0  0  0  0  0  0  0  0  0
   -2.7055    3.7900    0.0000 C   0  0  0  0  0  0  0  0  0
   -2.7055    2.9650    0.0000 C   0  0  0  0  0  0  0  0  0
   -3.4200    2.5525    0.0000 C   0  0  0  0  0  0  0  0  0
   -4.1344    2.9650    0.0000 C   0  0  0  0  0  0  0  0  0
   -4.8489    2.5525    0.0000 C   0  0  0  0  0  0  0  0  0
   -4.8489    1.7275    0.0000 N   0  0  0  0  0  0  0  0  0
   -5.5634    1.3150    0.0000 C   0  0  0  0  0  0  0  0  0
   -1.9910    2.5525    0.0000 C   0  0  0  0  0  0  0  0  0
   -1.2766    2.1400    0.0000 C   0  0  0  0  0  0  0  0  0
   -0.5621    1.7275    0.0000 C   0  0  0  0  0  0  0  0  0
   -0.5621    0.9025    0.0000 C   0  0  0  0  0  0  0  0  0
    0.1524    0.4900    0.0000 N   0  0  0  0  0  0  0  0  0
    0.8668    0.9025    0.0000 C   0  0  0  0  0  0  0  0  0
    0.1524   -0.3350    0.0000 C   0  0  0  0  0  0  0  0  0
    0.5649   -1.0495    0.0000 C   0  0  0  0  0  0  0  0  0
   -0.2601   -1.0495    0.0000 C   0  0  0  0  0  0  0  0  0
   -5.5634    2.9650    0.0000 C   0  0  0  0  0  0  0  0  0
   -6.2779    2.5525    0.0000 C   0  0  0  0  0  0  0  0  0
  1  2  1  0  0  0  0
  1  3  1  0  0  0  0
  3  4  4  0  0  0  0
  3 27  4  0  0  0  0
  4  5  4  0  0  0  0
  5  6  4  0  0  0  0
  6  7  1  0  0  0  0
  6 26  4  0  0  0  0
  7  8  1  0  0  0  0
  8  9  4  0  0  0  0
  8 13  4  0  0  0  0
  9 10  4  0  0  0  0
 10 11  4  0  0  0  0
 11 12  4  0  0  0  0
 11 17  1  0  0  0  0
 12 13  4  0  0  0  0
 13 14  1  0  0  0  0
 14 15  1  0  0  0  0
 15 16  1  0  0  0  0
 17 18  3  0  0  0  0
 18 19  1  0  0  0  0
 19 20  1  0  0  0  0
 20 21  1  0  0  0  0
 21 22  1  0  0  0  0
 21 23  1  0  0  0  0
 23 24  1  0  0  0  0
 23 25  1  0  0  0  0
 24 25  1  0  0  0  0
 26 27  4  0  0  0  0
M  END
>  <Name_Molregno>
399962

>  <Dopamine transporter>
6.4

>  <HISTAMINE H3>
8.21

>  <Norepinephrine transporter>
6.6

>  <Serotonin transporter>
8.96

$$$$
401982
  Marvin  02231216192D 0   1.00000     0.00000     0

 29 31  0  0  1  0  0  0  0  0999 V2000
   -2.5854    1.7087    0.0000 O   0  0  0  0  0  0  0  0  0
   -1.8709    1.2962    0.0000 C   0  0  0  0  0  0  0  0  0
   -1.1564    1.7087    0.0000 C   0  0  0  0  0  0  0  0  0
   -0.4419    1.2962    0.0000 C   0  0  0  0  0  0  0  0  0
    0.2725    1.7087    0.0000 N   0  0  0  0  0  0  0  0  0
    0.2725    2.5337    0.0000 C   0  0  0  0  0  0  0  0  0
    0.9870    1.2962    0.0000 C   0  0  0  0  0  0  0  0  0
   -1.8709    0.4712    0.0000 C   0  0  0  0  0  0  0  0  0
   -1.1564    0.0587    0.0000 C   0  0  0  0  0  0  0  0  0
   -1.1564   -0.7663    0.0000 C   0  0  0  0  0  0  0  0  0
   -1.8709   -1.1788    0.0000 C   0  0  0  0  0  0  0  0  0
   -1.8709   -2.0038    0.0000 O   0  0  0  0  0  0  0  0  0
   -2.5854   -2.4163    0.0000 C   0  0  0  0  0  0  0  0  0
   -2.5854   -3.2413    0.0000 C   0  0  0  0  0  0  0  0  0
   -3.2998   -3.6538    0.0000 C   0  0  0  0  0  0  0  0  0
   -3.2998   -4.4788    0.0000 N   0  0  0  0  0  0  0  0  0
   -2.5854   -4.8913    0.0000 C   0  0  0  0  0  0  0  0  0
   -2.5854   -5.7163    0.0000 C   0  0  0  0  0  0  0  0  0
   -3.2998   -6.1288    0.0000 C   0  0  0  0  0  0  0  0  0
   -4.0143   -5.7163    0.0000 C   0  0  0  0  0  0  0  0  0
   -4.0143   -4.8913    0.0000 C   0  0  0  0  0  0  0  0  0
   -2.5854   -0.7663    0.0000 C   0  0  0  0  0  0  0  0  0
   -2.5854    0.0587    0.0000 C   0  0  0  0  0  0  0  0  0
   -2.5854    2.5337    0.0000 C   0  0  0  0  0  0  0  0  0
   -3.2998    2.9462    0.0000 C   0  0  0  0  0  0  0  0  0
   -3.2998    3.7712    0.0000 C   0  0  0  0  0  0  0  0  0
   -2.5854    4.1837    0.0000 C   0  0  0  0  0  0  0  0  0
   -1.8709    3.7712    0.0000 C   0  0  0  0  0  0  0  0  0
   -1.8709    2.9462    0.0000 C   0  0  0  0  0  0  0  0  0
  1  2  1  0  0  0  0
  1 24  1  0  0  0  0
  2  3  1  0  0  0  0
  2  8  1  0  0  0  0
  3  4  1  0  0  0  0
  4  5  1  0  0  0  0
  5  6  1  0  0  0  0
  5  7  1  0  0  0  0
  8  9  4  0  0  0  0
  8 23  4  0  0  0  0
  9 10  4  0  0  0  0
 10 11  4  0  0  0  0
 11 12  1  0  0  0  0
 11 22  4  0  0  0  0
 12 13  1  0  0  0  0
 13 14  1  0  0  0  0
 14 15  1  0  0  0  0
 15 16  1  0  0  0  0
 16 17  1  0  0  0  0
 16 21  1  0  0  0  0
 17 18  1  0  0  0  0
 18 19  1  0  0  0  0
 19 20  1  0  0  0  0
 20 21  1  0  0  0  0
 22 23  4  0  0  0  0
 24 25  4  0  0  0  0
 24 29  4  0  0  0  0
 25 26  4  0  0  0  0
 26 27  4  0  0  0  0
 27 28  4  0  0  0  0
 28 29  4  0  0  0  0
M  END
>  <Name_Molregno>
401982

>  <HISTAMINE H3>
9.21

>  <Norepinephrine transporter>
6.7

>  <Serotonin transporter>
8.11

$$$$
405795
  Marvin  02231216192D 0   1.00000     0.00000     0

 22 23  0  0  0  0  0  0  0  0999 V2000
    1.1600    1.3710    0.0000 S   0  0  0  0  0  0  0  0  0
    1.1600    0.5460    0.0000 C   0  0  0  0  0  0  0  0  0
    1.8744    0.1335    0.0000 C   0  0  0  0  0  0  0  0  0
    1.8744   -0.6915    0.0000 C   0  0  0  0  0  0  0  0  0
    1.1600   -1.1040    0.0000 C   0  0  0  0  0  0  0  0  0
    1.1600   -1.9290    0.0000 O   0  0  0  0  0  0  0  0  0
    0.4455   -2.3415    0.0000 C   0  0  0  0  0  0  0  0  0
    0.4455   -3.1665    0.0000 C   0  0  0  0  0  0  0  0  0
   -0.2690   -3.5790    0.0000 F   0  0  0  0  0  0  0  0  0
    0.4455   -0.6915    0.0000 C   0  0  0  0  0  0  0  0  0
    0.4455    0.1335    0.0000 C   0  0  0  0  0  0  0  0  0
   -0.2690    0.5460    0.0000 C   0  0  0  0  0  0  0  0  0
   -0.9835    0.1335    0.0000 N   0  0  0  0  0  0  0  0  0
   -0.9835   -0.6915    0.0000 C   0  0  0  0  0  0  0  0  0
   -1.6979    0.5460    0.0000 C   0  0  0  0  0  0  0  0  0
    1.8744    1.7835    0.0000 C   0  0  0  0  0  0  0  0  0
    1.8744    2.6085    0.0000 C   0  0  0  0  0  0  0  0  0
    2.5889    3.0210    0.0000 C   0  0  0  0  0  0  0  0  0
    3.3034    2.6085    0.0000 C   0  0  0  0  0  0  0  0  0
    3.3034    1.7835    0.0000 C   0  0  0  0  0  0  0  0  0
    2.5889    1.3710    0.0000 C   0  0  0  0  0  0  0  0  0
    2.5889    0.5460    0.0000 N   0  0  0  0  0  0  0  0  0
  1  2  1  0  0  0  0
  1 16  1  0  0  0  0
  2  3  4  0  0  0  0
  2 11  4  0  0  0  0
  3  4  4  0  0  0  0
  4  5  4  0  0  0  0
  5  6  1  0  0  0  0
  5 10  4  0  0  0  0
  6  7  1  0  0  0  0
  7  8  1  0  0  0  0
  8  9  1  0  0  0  0
 10 11  4  0  0  0  0
 11 12  1  0  0  0  0
 12 13  1  0  0  0  0
 13 14  1  0  0  0  0
 13 15  1  0  0  0  0
 16 17  4  0  0  0  0
 16 21  4  0  0  0  0
 17 18  4  0  0  0  0
 18 19  4  0  0  0  0
 19 20  4  0  0  0  0
 20 21  4  0  0  0  0
 21 22  1  0  0  0  0
M  END
>  <Name_Molregno>
405795

>  <Dopamine transporter>
6.47

>  <Norepinephrine transporter>
8.12

>  <Serotonin transporter>
9.6

$$$$
405799
  Marvin  02231216192D 0   1.00000     0.00000     0

 23 24  0  0  0  0  0  0  0  0999 V2000
    0.9150    1.3585    0.0000 S   0  0  0  0  0  0  0  0  0
    0.9150    0.5335    0.0000 C   0  0  0  0  0  0  0  0  0
    1.6295    0.1210    0.0000 C   0  0  0  0  0  0  0  0  0
    1.6295   -0.7040    0.0000 C   0  0  0  0  0  0  0  0  0
    0.9150   -1.1165    0.0000 C   0  0  0  0  0  0  0  0  0
    0.9150   -1.9415    0.0000 O   0  0  0  0  0  0  0  0  0
    0.2005   -2.3540    0.0000 C   0  0  0  0  0  0  0  0  0
    0.2005   -3.1790    0.0000 C   0  0  0  0  0  0  0  0  0
   -0.5139   -3.5915    0.0000 F   0  0  0  0  0  0  0  0  0
    0.2005   -0.7040    0.0000 C   0  0  0  0  0  0  0  0  0
    0.2005    0.1210    0.0000 C   0  0  0  0  0  0  0  0  0
   -0.5139    0.5335    0.0000 C   0  0  0  0  0  0  0  0  0
   -1.2284    0.1210    0.0000 N   0  0  0  0  0  0  0  0  0
   -1.2284   -0.7040    0.0000 C   0  0  0  0  0  0  0  0  0
   -1.9429    0.5335    0.0000 C   0  0  0  0  0  0  0  0  0
    1.6295    1.7710    0.0000 C   0  0  0  0  0  0  0  0  0
    1.6295    2.5960    0.0000 C   0  0  0  0  0  0  0  0  0
    2.3440    3.0085    0.0000 C   0  0  0  0  0  0  0  0  0
    3.0584    2.5960    0.0000 C   0  0  0  0  0  0  0  0  0
    3.7729    3.0085    0.0000 F   0  0  0  0  0  0  0  0  0
    3.0584    1.7710    0.0000 C   0  0  0  0  0  0  0  0  0
    2.3440    1.3585    0.0000 C   0  0  0  0  0  0  0  0  0
    2.3440    0.5335    0.0000 N   0  0  0  0  0  0  0  0  0
  1  2  1  0  0  0  0
  1 16  1  0  0  0  0
  2  3  4  0  0  0  0
  2 11  4  0  0  0  0
  3  4  4  0  0  0  0
  4  5  4  0  0  0  0
  5  6  1  0  0  0  0
  5 10  4  0  0  0  0
  6  7  1  0  0  0  0
  7  8  1  0  0  0  0
  8  9  1  0  0  0  0
 10 11  4  0  0  0  0
 11 12  1  0  0  0  0
 12 13  1  0  0  0  0
 13 14  1  0  0  0  0
 13 15  1  0  0  0  0
 16 17  4  0  0  0  0
 16 22  4  0  0  0  0
 17 18  4  0  0  0  0
 18 19  4  0  0  0  0
 19 20  1  0  0  0  0
 19 21  4  0  0  0  0
 21 22  4  0  0  0  0
 22 23  1  0  0  0  0
M  END
>  <Name_Molregno>
405799

>  <Dopamine transporter>
6

>  <Norepinephrine transporter>
7.43

>  <Serotonin transporter>
10

$$$$
405802
  Marvin  02231216192D 0   1.00000     0.00000     0

 23 24  0  0  0  0  0  0  0  0999 V2000
    4.7565    4.0488    0.0000 Cl  0  0  0  0  0  0  0  0  0
    4.7565    3.2238    0.0000 C   0  0  0  0  0  0  0  0  0
    5.4709    2.8113    0.0000 C   0  0  0  0  0  0  0  0  0
    5.4709    1.9863    0.0000 C   0  0  0  0  0  0  0  0  0
    6.1854    1.5738    0.0000 N   0  0  0  0  0  0  0  0  0
    4.7565    1.5738    0.0000 C   0  0  0  0  0  0  0  0  0
    4.7565    0.7488    0.0000 S   0  0  0  0  0  0  0  0  0
    4.0420    0.3363    0.0000 C   0  0  0  0  0  0  0  0  0
    4.0420   -0.4887    0.0000 C   0  0  0  0  0  0  0  0  0
    3.3275   -0.9012    0.0000 C   0  0  0  0  0  0  0  0  0
    2.6131   -0.4887    0.0000 C   0  0  0  0  0  0  0  0  0
    1.8986   -0.9012    0.0000 O   0  0  0  0  0  0  0  0  0
    1.8986   -1.7262    0.0000 C   0  0  0  0  0  0  0  0  0
    1.1841   -2.1387    0.0000 C   0  0  0  0  0  0  0  0  0
    1.1841   -2.9637    0.0000 F   0  0  0  0  0  0  0  0  0
    2.6131    0.3363    0.0000 C   0  0  0  0  0  0  0  0  0
    3.3275    0.7488    0.0000 C   0  0  0  0  0  0  0  0  0
    3.3275    1.5738    0.0000 C   0  0  0  0  0  0  0  0  0
    2.6131    1.9863    0.0000 N   0  0  0  0  0  0  0  0  0
    1.8986    1.5738    0.0000 C   0  0  0  0  0  0  0  0  0
    2.6131    2.8113    0.0000 C   0  0  0  0  0  0  0  0  0
    4.0420    1.9863    0.0000 C   0  0  0  0  0  0  0  0  0
    4.0420    2.8113    0.0000 C   0  0  0  0  0  0  0  0  0
  1  2  1  0  0  0  0
  2  3  4  0  0  0  0
  2 23  4  0  0  0  0
  3  4  4  0  0  0  0
  4  5  1  0  0  0  0
  4  6  4  0  0  0  0
  6  7  1  0  0  0  0
  6 22  4  0  0  0  0
  7  8  1  0  0  0  0
  8  9  4  0  0  0  0
  8 17  4  0  0  0  0
  9 10  4  0  0  0  0
 10 11  4  0  0  0  0
 11 12  1  0  0  0  0
 11 16  4  0  0  0  0
 12 13  1  0  0  0  0
 13 14  1  0  0  0  0
 14 15  1  0  0  0  0
 16 17  4  0  0  0  0
 17 18  1  0  0  0  0
 18 19  1  0  0  0  0
 19 20  1  0  0  0  0
 19 21  1  0  0  0  0
 22 23  4  0  0  0  0
M  END
>  <Name_Molregno>
405802

>  <Dopamine transporter>
6.07

>  <Norepinephrine transporter>
7.01

>  <Serotonin transporter>
10.52

$$$$
405805
  Marvin  02231216192D 0   1.00000     0.00000     0

 23 24  0  0  0  0  0  0  0  0999 V2000
    4.7565    4.0488    0.0000 Br  0  0  0  0  0  0  0  0  0
    4.7565    3.2238    0.0000 C   0  0  0  0  0  0  0  0  0
    5.4709    2.8113    0.0000 C   0  0  0  0  0  0  0  0  0
    5.4709    1.9863    0.0000 C   0  0  0  0  0  0  0  0  0
    6.1854    1.5738    0.0000 N   0  0  0  0  0  0  0  0  0
    4.7565    1.5738    0.0000 C   0  0  0  0  0  0  0  0  0
    4.7565    0.7488    0.0000 S   0  0  0  0  0  0  0  0  0
    4.0420    0.3363    0.0000 C   0  0  0  0  0  0  0  0  0
    4.0420   -0.4887    0.0000 C   0  0  0  0  0  0  0  0  0
    3.3275   -0.9012    0.0000 C   0  0  0  0  0  0  0  0  0
    2.6131   -0.4887    0.0000 C   0  0  0  0  0  0  0  0  0
    1.8986   -0.9012    0.0000 O   0  0  0  0  0  0  0  0  0
    1.8986   -1.7262    0.0000 C   0  0  0  0  0  0  0  0  0
    1.1841   -2.1387    0.0000 C   0  0  0  0  0  0  0  0  0
    1.1841   -2.9637    0.0000 F   0  0  0  0  0  0  0  0  0
    2.6131    0.3363    0.0000 C   0  0  0  0  0  0  0  0  0
    3.3275    0.7488    0.0000 C   0  0  0  0  0  0  0  0  0
    3.3275    1.5738    0.0000 C   0  0  0  0  0  0  0  0  0
    2.6131    1.9863    0.0000 N   0  0  0  0  0  0  0  0  0
    1.8986    1.5738    0.0000 C   0  0  0  0  0  0  0  0  0
    2.6131    2.8113    0.0000 C   0  0  0  0  0  0  0  0  0
    4.0420    1.9863    0.0000 C   0  0  0  0  0  0  0  0  0
    4.0420    2.8113    0.0000 C   0  0  0  0  0  0  0  0  0
  1  2  1  0  0  0  0
  2  3  4  0  0  0  0
  2 23  4  0  0  0  0
  3  4  4  0  0  0  0
  4  5  1  0  0  0  0
  4  6  4  0  0  0  0
  6  7  1  0  0  0  0
  6 22  4  0  0  0  0
  7  8  1  0  0  0  0
  8  9  4  0  0  0  0
  8 17  4  0  0  0  0
  9 10  4  0  0  0  0
 10 11  4  0  0  0  0
 11 12  1  0  0  0  0
 11 16  4  0  0  0  0
 12 13  1  0  0  0  0
 13 14  1  0  0  0  0
 14 15  1  0  0  0  0
 16 17  4  0  0  0  0
 17 18  1  0  0  0  0
 18 19  1  0  0  0  0
 19 20  1  0  0  0  0
 19 21  1  0  0  0  0
 22 23  4  0  0  0  0
M  END
>  <Name_Molregno>
405805

>  <Dopamine transporter>
6

>  <Norepinephrine transporter>
6.94

>  <Serotonin transporter>
10.3

$$$$
405806
  Marvin  02231216192D 0   1.00000     0.00000     0

 23 24  0  0  0  0  0  0  0  0999 V2000
   -0.0129   -0.4215    0.0000 S   0  0  0  0  0  0  0  0  0
    0.7015   -0.0090    0.0000 C   0  0  0  0  0  0  0  0  0
    0.7015    0.8160    0.0000 C   0  0  0  0  0  0  0  0  0
    1.4160    1.2285    0.0000 C   0  0  0  0  0  0  0  0  0
    2.1305    0.8160    0.0000 C   0  0  0  0  0  0  0  0  0
    2.8449    1.2285    0.0000 O   0  0  0  0  0  0  0  0  0
    3.5594    0.8160    0.0000 C   0  0  0  0  0  0  0  0  0
    4.2739    1.2285    0.0000 C   0  0  0  0  0  0  0  0  0
    4.9884    0.8160    0.0000 C   0  0  0  0  0  0  0  0  0
    5.7028    1.2285    0.0000 F   0  0  0  0  0  0  0  0  0
    2.1305   -0.0090    0.0000 C   0  0  0  0  0  0  0  0  0
    1.4160   -0.4215    0.0000 C   0  0  0  0  0  0  0  0  0
    1.4160   -1.2465    0.0000 C   0  0  0  0  0  0  0  0  0
    2.1305   -1.6590    0.0000 N   0  0  0  0  0  0  0  0  0
    2.8449   -1.2465    0.0000 C   0  0  0  0  0  0  0  0  0
    2.1305   -2.4840    0.0000 C   0  0  0  0  0  0  0  0  0
   -0.7274   -0.0090    0.0000 C   0  0  0  0  0  0  0  0  0
   -1.4419   -0.4215    0.0000 C   0  0  0  0  0  0  0  0  0
   -2.1564   -0.0090    0.0000 C   0  0  0  0  0  0  0  0  0
   -2.1564    0.8160    0.0000 C   0  0  0  0  0  0  0  0  0
   -1.4419    1.2285    0.0000 C   0  0  0  0  0  0  0  0  0
   -0.7274    0.8160    0.0000 C   0  0  0  0  0  0  0  0  0
   -0.0129    1.2285    0.0000 N   0  0  0  0  0  0  0  0  0
  1  2  1  0  0  0  0
  1 17  1  0  0  0  0
  2  3  4  0  0  0  0
  2 12  4  0  0  0  0
  3  4  4  0  0  0  0
  4  5  4  0  0  0  0
  5  6  1  0  0  0  0
  5 11  4  0  0  0  0
  6  7  1  0  0  0  0
  7  8  1  0  0  0  0
  8  9  1  0  0  0  0
  9 10  1  0  0  0  0
 11 12  4  0  0  0  0
 12 13  1  0  0  0  0
 13 14  1  0  0  0  0
 14 15  1  0  0  0  0
 14 16  1  0  0  0  0
 17 18  4  0  0  0  0
 17 22  4  0  0  0  0
 18 19  4  0  0  0  0
 19 20  4  0  0  0  0
 20 21  4  0  0  0  0
 21 22  4  0  0  0  0
 22 23  1  0  0  0  0
M  END
>  <Name_Molregno>
405806

>  <Dopamine transporter>
6.52

>  <Norepinephrine transporter>
7.92

>  <Serotonin transporter>
8.85

$$$$
405809
  Marvin  02231216192D 0   1.00000     0.00000     0

 24 25  0  0  0  0  0  0  0  0999 V2000
    0.0406   -0.5950    0.0000 S   0  0  0  0  0  0  0  0  0
    0.7551   -0.1825    0.0000 C   0  0  0  0  0  0  0  0  0
    0.7551    0.6425    0.0000 C   0  0  0  0  0  0  0  0  0
    1.4696    1.0550    0.0000 C   0  0  0  0  0  0  0  0  0
    2.1840    0.6425    0.0000 C   0  0  0  0  0  0  0  0  0
    2.8985    1.0550    0.0000 O   0  0  0  0  0  0  0  0  0
    3.6130    0.6425    0.0000 C   0  0  0  0  0  0  0  0  0
    4.3275    1.0550    0.0000 C   0  0  0  0  0  0  0  0  0
    5.0419    0.6425    0.0000 C   0  0  0  0  0  0  0  0  0
    5.7564    1.0550    0.0000 F   0  0  0  0  0  0  0  0  0
    2.1840   -0.1825    0.0000 C   0  0  0  0  0  0  0  0  0
    1.4696   -0.5950    0.0000 C   0  0  0  0  0  0  0  0  0
    1.4696   -1.4200    0.0000 C   0  0  0  0  0  0  0  0  0
    2.1840   -1.8325    0.0000 N   0  0  0  0  0  0  0  0  0
    2.8985   -1.4200    0.0000 C   0  0  0  0  0  0  0  0  0
    2.1840   -2.6575    0.0000 C   0  0  0  0  0  0  0  0  0
   -0.6738   -0.1825    0.0000 C   0  0  0  0  0  0  0  0  0
   -1.3883   -0.5950    0.0000 C   0  0  0  0  0  0  0  0  0
   -2.1028   -0.1825    0.0000 C   0  0  0  0  0  0  0  0  0
   -2.1028    0.6425    0.0000 C   0  0  0  0  0  0  0  0  0
   -2.8173    1.0550    0.0000 F   0  0  0  0  0  0  0  0  0
   -1.3883    1.0550    0.0000 C   0  0  0  0  0  0  0  0  0
   -0.6738    0.6425    0.0000 C   0  0  0  0  0  0  0  0  0
    0.0406    1.0550    0.0000 N   0  0  0  0  0  0  0  0  0
  1  2  1  0  0  0  0
  1 17  1  0  0  0  0
  2  3  4  0  0  0  0
  2 12  4  0  0  0  0
  3  4  4  0  0  0  0
  4  5  4  0  0  0  0
  5  6  1  0  0  0  0
  5 11  4  0  0  0  0
  6  7  1  0  0  0  0
  7  8  1  0  0  0  0
  8  9  1  0  0  0  0
  9 10  1  0  0  0  0
 11 12  4  0  0  0  0
 12 13  1  0  0  0  0
 13 14  1  0  0  0  0
 14 15  1  0  0  0  0
 14 16  1  0  0  0  0
 17 18  4  0  0  0  0
 17 23  4  0  0  0  0
 18 19  4  0  0  0  0
 19 20  4  0  0  0  0
 20 21  1  0  0  0  0
 20 22  4  0  0  0  0
 22 23  4  0  0  0  0
 23 24  1  0  0  0  0
M  END
>  <Name_Molregno>
405809

>  <Dopamine transporter>
6

>  <Norepinephrine transporter>
7.02

>  <Serotonin transporter>
9.02

$$$$
405811
  Marvin  02231216192D 0   1.00000     0.00000     0

 24 25  0  0  0  0  0  0  0  0999 V2000
    1.2408   -5.5077    0.0000 Br  0  0  0  0  0  0  0  0  0
    1.2408   -4.6827    0.0000 C   0  0  0  0  0  0  0  0  0
    0.5263   -4.2702    0.0000 C   0  0  0  0  0  0  0  0  0
    0.5263   -3.4452    0.0000 C   0  0  0  0  0  0  0  0  0
   -0.1882   -3.0327    0.0000 N   0  0  0  0  0  0  0  0  0
    1.2408   -3.0327    0.0000 C   0  0  0  0  0  0  0  0  0
    1.2408   -2.2077    0.0000 S   0  0  0  0  0  0  0  0  0
    1.9552   -1.7952    0.0000 C   0  0  0  0  0  0  0  0  0
    1.9552   -0.9702    0.0000 C   0  0  0  0  0  0  0  0  0
    2.6697   -0.5577    0.0000 C   0  0  0  0  0  0  0  0  0
    3.3842   -0.9702    0.0000 C   0  0  0  0  0  0  0  0  0
    4.0986   -0.5577    0.0000 O   0  0  0  0  0  0  0  0  0
    4.8131   -0.9702    0.0000 C   0  0  0  0  0  0  0  0  0
    5.5276   -0.5577    0.0000 C   0  0  0  0  0  0  0  0  0
    6.2420   -0.9702    0.0000 C   0  0  0  0  0  0  0  0  0
    6.9565   -0.5577    0.0000 F   0  0  0  0  0  0  0  0  0
    3.3842   -1.7952    0.0000 C   0  0  0  0  0  0  0  0  0
    2.6697   -2.2077    0.0000 C   0  0  0  0  0  0  0  0  0
    2.6697   -3.0327    0.0000 C   0  0  0  0  0  0  0  0  0
    3.3842   -3.4452    0.0000 N   0  0  0  0  0  0  0  0  0
    4.0986   -3.0327    0.0000 C   0  0  0  0  0  0  0  0  0
    3.3842   -4.2702    0.0000 C   0  0  0  0  0  0  0  0  0
    1.9552   -3.4452    0.0000 C   0  0  0  0  0  0  0  0  0
    1.9552   -4.2702    0.0000 C   0  0  0  0  0  0  0  0  0
  1  2  1  0  0  0  0
  2  3  4  0  0  0  0
  2 24  4  0  0  0  0
  3  4  4  0  0  0  0
  4  5  1  0  0  0  0
  4  6  4  0  0  0  0
  6  7  1  0  0  0  0
  6 23  4  0  0  0  0
  7  8  1  0  0  0  0
  8  9  4  0  0  0  0
  8 18  4  0  0  0  0
  9 10  4  0  0  0  0
 10 11  4  0  0  0  0
 11 12  1  0  0  0  0
 11 17  4  0  0  0  0
 12 13  1  0  0  0  0
 13 14  1  0  0  0  0
 14 15  1  0  0  0  0
 15 16  1  0  0  0  0
 17 18  4  0  0  0  0
 18 19  1  0  0  0  0
 19 20  1  0  0  0  0
 20 21  1  0  0  0  0
 20 22  1  0  0  0  0
 23 24  4  0  0  0  0
M  END
>  <Name_Molregno>
405811

>  <Dopamine transporter>
6

>  <Norepinephrine transporter>
6

>  <Serotonin transporter>
9.82

$$$$
405812
  Marvin  02231216192D 0   1.00000     0.00000     0

 22 23  0  0  0  0  0  0  0  0999 V2000
    1.1600    1.3710    0.0000 S   0  0  0  0  0  0  0  0  0
    1.1600    0.5460    0.0000 C   0  0  0  0  0  0  0  0  0
    1.8744    0.1335    0.0000 C   0  0  0  0  0  0  0  0  0
    1.8744   -0.6915    0.0000 C   0  0  0  0  0  0  0  0  0
    1.1600   -1.1040    0.0000 C   0  0  0  0  0  0  0  0  0
    1.1600   -1.9290    0.0000 O   0  0  0  0  0  0  0  0  0
    0.4455   -2.3415    0.0000 C   0  0  0  0  0  0  0  0  0
    0.4455   -3.1665    0.0000 C   0  0  0  0  0  0  0  0  0
   -0.2690   -3.5790    0.0000 O   0  0  0  0  0  0  0  0  0
    0.4455   -0.6915    0.0000 C   0  0  0  0  0  0  0  0  0
    0.4455    0.1335    0.0000 C   0  0  0  0  0  0  0  0  0
   -0.2690    0.5460    0.0000 C   0  0  0  0  0  0  0  0  0
   -0.9835    0.1335    0.0000 N   0  0  0  0  0  0  0  0  0
   -0.9835   -0.6915    0.0000 C   0  0  0  0  0  0  0  0  0
   -1.6979    0.5460    0.0000 C   0  0  0  0  0  0  0  0  0
    1.8744    1.7835    0.0000 C   0  0  0  0  0  0  0  0  0
    1.8744    2.6085    0.0000 C   0  0  0  0  0  0  0  0  0
    2.5889    3.0210    0.0000 C   0  0  0  0  0  0  0  0  0
    3.3034    2.6085    0.0000 C   0  0  0  0  0  0  0  0  0
    3.3034    1.7835    0.0000 C   0  0  0  0  0  0  0  0  0
    2.5889    1.3710    0.0000 C   0  0  0  0  0  0  0  0  0
    2.5889    0.5460    0.0000 N   0  0  0  0  0  0  0  0  0
  1  2  1  0  0  0  0
  1 16  1  0  0  0  0
  2  3  4  0  0  0  0
  2 11  4  0  0  0  0
  3  4  4  0  0  0  0
  4  5  4  0  0  0  0
  5  6  1  0  0  0  0
  5 10  4  0  0  0  0
  6  7  1  0  0  0  0
  7  8  1  0  0  0  0
  8  9  1  0  0  0  0
 10 11  4  0  0  0  0
 11 12  1  0  0  0  0
 12 13  1  0  0  0  0
 13 14  1  0  0  0  0
 13 15  1  0  0  0  0
 16 17  4  0  0  0  0
 16 21  4  0  0  0  0
 17 18  4  0  0  0  0
 18 19  4  0  0  0  0
 19 20  4  0  0  0  0
 20 21  4  0  0  0  0
 21 22  1  0  0  0  0
M  END
>  <Name_Molregno>
405812

>  <Dopamine transporter>
6.45

>  <Norepinephrine transporter>
7.96

>  <Serotonin transporter>
8.96

$$$$
405813
  Marvin  02231216192D 0   1.00000     0.00000     0

 23 24  0  0  0  0  0  0  0  0999 V2000
    0.9150    1.3585    0.0000 S   0  0  0  0  0  0  0  0  0
    0.9150    0.5335    0.0000 C   0  0  0  0  0  0  0  0  0
    1.6295    0.1210    0.0000 C   0  0  0  0  0  0  0  0  0
    1.6295   -0.7040    0.0000 C   0  0  0  0  0  0  0  0  0
    0.9150   -1.1165    0.0000 C   0  0  0  0  0  0  0  0  0
    0.9150   -1.9415    0.0000 O   0  0  0  0  0  0  0  0  0
    0.2005   -2.3540    0.0000 C   0  0  0  0  0  0  0  0  0
    0.2005   -3.1790    0.0000 C   0  0  0  0  0  0  0  0  0
   -0.5139   -3.5915    0.0000 O   0  0  0  0  0  0  0  0  0
    0.2005   -0.7040    0.0000 C   0  0  0  0  0  0  0  0  0
    0.2005    0.1210    0.0000 C   0  0  0  0  0  0  0  0  0
   -0.5139    0.5335    0.0000 C   0  0  0  0  0  0  0  0  0
   -1.2284    0.1210    0.0000 N   0  0  0  0  0  0  0  0  0
   -1.2284   -0.7040    0.0000 C   0  0  0  0  0  0  0  0  0
   -1.9429    0.5335    0.0000 C   0  0  0  0  0  0  0  0  0
    1.6295    1.7710    0.0000 C   0  0  0  0  0  0  0  0  0
    1.6295    2.5960    0.0000 C   0  0  0  0  0  0  0  0  0
    2.3440    3.0085    0.0000 C   0  0  0  0  0  0  0  0  0
    3.0584    2.5960    0.0000 C   0  0  0  0  0  0  0  0  0
    3.7729    3.0085    0.0000 F   0  0  0  0  0  0  0  0  0
    3.0584    1.7710    0.0000 C   0  0  0  0  0  0  0  0  0
    2.3440    1.3585    0.0000 C   0  0  0  0  0  0  0  0  0
    2.3440    0.5335    0.0000 N   0  0  0  0  0  0  0  0  0
  1  2  1  0  0  0  0
  1 16  1  0  0  0  0
  2  3  4  0  0  0  0
  2 11  4  0  0  0  0
  3  4  4  0  0  0  0
  4  5  4  0  0  0  0
  5  6  1  0  0  0  0
  5 10  4  0  0  0  0
  6  7  1  0  0  0  0
  7  8  1  0  0  0  0
  8  9  1  0  0  0  0
 10 11  4  0  0  0  0
 11 12  1  0  0  0  0
 12 13  1  0  0  0  0
 13 14  1  0  0  0  0
 13 15  1  0  0  0  0
 16 17  4  0  0  0  0
 16 22  4  0  0  0  0
 17 18  4  0  0  0  0
 18 19  4  0  0  0  0
 19 20  1  0  0  0  0
 19 21  4  0  0  0  0
 21 22  4  0  0  0  0
 22 23  1  0  0  0  0
M  END
>  <Name_Molregno>
405813

>  <Dopamine transporter>
6

>  <Norepinephrine transporter>
7.25

>  <Serotonin transporter>
8.92

$$$$
405814
  Marvin  02231216192D 0   1.00000     0.00000     0

 23 24  0  0  0  0  0  0  0  0999 V2000
   -0.0129   -0.4215    0.0000 S   0  0  0  0  0  0  0  0  0
    0.7015   -0.0090    0.0000 C   0  0  0  0  0  0  0  0  0
    0.7015    0.8160    0.0000 C   0  0  0  0  0  0  0  0  0
    1.4160    1.2285    0.0000 C   0  0  0  0  0  0  0  0  0
    2.1305    0.8160    0.0000 C   0  0  0  0  0  0  0  0  0
    2.8449    1.2285    0.0000 O   0  0  0  0  0  0  0  0  0
    3.5594    0.8160    0.0000 C   0  0  0  0  0  0  0  0  0
    4.2739    1.2285    0.0000 C   0  0  0  0  0  0  0  0  0
    4.9884    0.8160    0.0000 C   0  0  0  0  0  0  0  0  0
    5.7028    1.2285    0.0000 O   0  0  0  0  0  0  0  0  0
    2.1305   -0.0090    0.0000 C   0  0  0  0  0  0  0  0  0
    1.4160   -0.4215    0.0000 C   0  0  0  0  0  0  0  0  0
    1.4160   -1.2465    0.0000 C   0  0  0  0  0  0  0  0  0
    2.1305   -1.6590    0.0000 N   0  0  0  0  0  0  0  0  0
    2.8449   -1.2465    0.0000 C   0  0  0  0  0  0  0  0  0
    2.1305   -2.4840    0.0000 C   0  0  0  0  0  0  0  0  0
   -0.7274   -0.0090    0.0000 C   0  0  0  0  0  0  0  0  0
   -1.4419   -0.4215    0.0000 C   0  0  0  0  0  0  0  0  0
   -2.1564   -0.0090    0.0000 C   0  0  0  0  0  0  0  0  0
   -2.1564    0.8160    0.0000 C   0  0  0  0  0  0  0  0  0
   -1.4419    1.2285    0.0000 C   0  0  0  0  0  0  0  0  0
   -0.7274    0.8160    0.0000 C   0  0  0  0  0  0  0  0  0
   -0.0129    1.2285    0.0000 N   0  0  0  0  0  0  0  0  0
  1  2  1  0  0  0  0
  1 17  1  0  0  0  0
  2  3  4  0  0  0  0
  2 12  4  0  0  0  0
  3  4  4  0  0  0  0
  4  5  4  0  0  0  0
  5  6  1  0  0  0  0
  5 11  4  0  0  0  0
  6  7  1  0  0  0  0
  7  8  1  0  0  0  0
  8  9  1  0  0  0  0
  9 10  1  0  0  0  0
 11 12  4  0  0  0  0
 12 13  1  0  0  0  0
 13 14  1  0  0  0  0
 14 15  1  0  0  0  0
 14 16  1  0  0  0  0
 17 18  4  0  0  0  0
 17 22  4  0  0  0  0
 18 19  4  0  0  0  0
 19 20  4  0  0  0  0
 20 21  4  0  0  0  0
 21 22  4  0  0  0  0
 22 23  1  0  0  0  0
M  END
>  <Name_Molregno>
405814

>  <Dopamine transporter>
6.35

>  <Norepinephrine transporter>
8.15

>  <Serotonin transporter>
8.89

$$$$
405816
  Marvin  02231216192D 0   1.00000     0.00000     0

 24 25  0  0  0  0  0  0  0  0999 V2000
    1.2408   -5.5077    0.0000 Br  0  0  0  0  0  0  0  0  0
    1.2408   -4.6827    0.0000 C   0  0  0  0  0  0  0  0  0
    0.5263   -4.2702    0.0000 C   0  0  0  0  0  0  0  0  0
    0.5263   -3.4452    0.0000 C   0  0  0  0  0  0  0  0  0
   -0.1882   -3.0327    0.0000 N   0  0  0  0  0  0  0  0  0
    1.2408   -3.0327    0.0000 C   0  0  0  0  0  0  0  0  0
    1.2408   -2.2077    0.0000 S   0  0  0  0  0  0  0  0  0
    1.9552   -1.7952    0.0000 C   0  0  0  0  0  0  0  0  0
    1.9552   -0.9702    0.0000 C   0  0  0  0  0  0  0  0  0
    2.6697   -0.5577    0.0000 C   0  0  0  0  0  0  0  0  0
    3.3842   -0.9702    0.0000 C   0  0  0  0  0  0  0  0  0
    4.0986   -0.5577    0.0000 O   0  0  0  0  0  0  0  0  0
    4.8131   -0.9702    0.0000 C   0  0  0  0  0  0  0  0  0
    5.5276   -0.5577    0.0000 C   0  0  0  0  0  0  0  0  0
    6.2420   -0.9702    0.0000 C   0  0  0  0  0  0  0  0  0
    6.9565   -0.5577    0.0000 O   0  0  0  0  0  0  0  0  0
    3.3842   -1.7952    0.0000 C   0  0  0  0  0  0  0  0  0
    2.6697   -2.2077    0.0000 C   0  0  0  0  0  0  0  0  0
    2.6697   -3.0327    0.0000 C   0  0  0  0  0  0  0  0  0
    3.3842   -3.4452    0.0000 N   0  0  0  0  0  0  0  0  0
    4.0986   -3.0327    0.0000 C   0  0  0  0  0  0  0  0  0
    3.3842   -4.2702    0.0000 C   0  0  0  0  0  0  0  0  0
    1.9552   -3.4452    0.0000 C   0  0  0  0  0  0  0  0  0
    1.9552   -4.2702    0.0000 C   0  0  0  0  0  0  0  0  0
  1  2  1  0  0  0  0
  2  3  4  0  0  0  0
  2 24  4  0  0  0  0
  3  4  4  0  0  0  0
  4  5  1  0  0  0  0
  4  6  4  0  0  0  0
  6  7  1  0  0  0  0
  6 23  4  0  0  0  0
  7  8  1  0  0  0  0
  8  9  4  0  0  0  0
  8 18  4  0  0  0  0
  9 10  4  0  0  0  0
 10 11  4  0  0  0  0
 11 12  1  0  0  0  0
 11 17  4  0  0  0  0
 12 13  1  0  0  0  0
 13 14  1  0  0  0  0
 14 15  1  0  0  0  0
 15 16  1  0  0  0  0
 17 18  4  0  0  0  0
 18 19  1  0  0  0  0
 19 20  1  0  0  0  0
 20 21  1  0  0  0  0
 20 22  1  0  0  0  0
 23 24  4  0  0  0  0
M  END
>  <Name_Molregno>
405816

>  <Dopamine transporter>
6

>  <Norepinephrine transporter>
6.55

>  <Serotonin transporter>
9.68

$$$$
405817
  Marvin  02231216192D 0   1.00000     0.00000     0

 20 21  0  0  0  0  0  0  0  0999 V2000
    0.3043    0.2249    0.0000 S   0  0  0  0  0  0  0  0  0
    0.3043   -0.6001    0.0000 C   0  0  0  0  0  0  0  0  0
    1.0187   -1.0126    0.0000 C   0  0  0  0  0  0  0  0  0
    1.0187   -1.8376    0.0000 C   0  0  0  0  0  0  0  0  0
    0.3043   -2.2501    0.0000 C   0  0  0  0  0  0  0  0  0
    0.3043   -3.0751    0.0000 O   0  0  0  0  0  0  0  0  0
   -0.4102   -3.4876    0.0000 C   0  0  0  0  0  0  0  0  0
   -0.4102   -1.8376    0.0000 C   0  0  0  0  0  0  0  0  0
   -0.4102   -1.0126    0.0000 C   0  0  0  0  0  0  0  0  0
   -1.1247   -0.6001    0.0000 C   0  0  0  0  0  0  0  0  0
   -1.8391   -1.0126    0.0000 N   0  0  0  0  0  0  0  0  0
   -1.8391   -1.8376    0.0000 C   0  0  0  0  0  0  0  0  0
   -2.5536   -0.6001    0.0000 C   0  0  0  0  0  0  0  0  0
    1.0187    0.6374    0.0000 C   0  0  0  0  0  0  0  0  0
    1.0187    1.4624    0.0000 C   0  0  0  0  0  0  0  0  0
    1.7332    1.8749    0.0000 C   0  0  0  0  0  0  0  0  0
    2.4477    1.4624    0.0000 C   0  0  0  0  0  0  0  0  0
    2.4477    0.6374    0.0000 C   0  0  0  0  0  0  0  0  0
    1.7332    0.2249    0.0000 C   0  0  0  0  0  0  0  0  0
    1.7332   -0.6001    0.0000 N   0  0  0  0  0  0  0  0  0
  1  2  1  0  0  0  0
  1 14  1  0  0  0  0
  2  3  4  0  0  0  0
  2  9  4  0  0  0  0
  3  4  4  0  0  0  0
  4  5  4  0  0  0  0
  5  6  1  0  0  0  0
  5  8  4  0  0  0  0
  6  7  1  0  0  0  0
  8  9  4  0  0  0  0
  9 10  1  0  0  0  0
 10 11  1  0  0  0  0
 11 12  1  0  0  0  0
 11 13  1  0  0  0  0
 14 15  4  0  0  0  0
 14 19  4  0  0  0  0
 15 16  4  0  0  0  0
 16 17  4  0  0  0  0
 17 18  4  0  0  0  0
 18 19  4  0  0  0  0
 19 20  1  0  0  0  0
M  END
>  <Name_Molregno>
405817

>  <Dopamine transporter>
6.24

>  <Norepinephrine transporter>
7.85

>  <Serotonin transporter>
8.3

$$$$
405819
  Marvin  02231216192D 0   1.00000     0.00000     0

 19 20  0  0  0  0  0  0  0  0999 V2000
    0.2211    0.2255    0.0000 S   0  0  0  0  0  0  0  0  0
    0.2211   -0.5995    0.0000 C   0  0  0  0  0  0  0  0  0
    0.9356   -1.0120    0.0000 C   0  0  0  0  0  0  0  0  0
    0.9356   -1.8370    0.0000 C   0  0  0  0  0  0  0  0  0
    0.2211   -2.2495    0.0000 C   0  0  0  0  0  0  0  0  0
    0.2211   -3.0745    0.0000 O   0  0  0  0  0  0  0  0  0
   -0.4933   -1.8370    0.0000 C   0  0  0  0  0  0  0  0  0
   -0.4933   -1.0120    0.0000 C   0  0  0  0  0  0  0  0  0
   -1.2078   -0.5995    0.0000 C   0  0  0  0  0  0  0  0  0
   -1.9223   -1.0120    0.0000 N   0  0  0  0  0  0  0  0  0
   -1.9223   -1.8370    0.0000 C   0  0  0  0  0  0  0  0  0
   -2.6368   -0.5995    0.0000 C   0  0  0  0  0  0  0  0  0
    0.9356    0.6380    0.0000 C   0  0  0  0  0  0  0  0  0
    0.9356    1.4630    0.0000 C   0  0  0  0  0  0  0  0  0
    1.6501    1.8755    0.0000 C   0  0  0  0  0  0  0  0  0
    2.3645    1.4630    0.0000 C   0  0  0  0  0  0  0  0  0
    2.3645    0.6380    0.0000 C   0  0  0  0  0  0  0  0  0
    1.6501    0.2255    0.0000 C   0  0  0  0  0  0  0  0  0
    1.6501   -0.5995    0.0000 N   0  0  0  0  0  0  0  0  0
  1  2  1  0  0  0  0
  1 13  1  0  0  0  0
  2  3  4  0  0  0  0
  2  8  4  0  0  0  0
  3  4  4  0  0  0  0
  4  5  4  0  0  0  0
  5  6  1  0  0  0  0
  5  7  4  0  0  0  0
  7  8  4  0  0  0  0
  8  9  1  0  0  0  0
  9 10  1  0  0  0  0
 10 11  1  0  0  0  0
 10 12  1  0  0  0  0
 13 14  4  0  0  0  0
 13 18  4  0  0  0  0
 14 15  4  0  0  0  0
 15 16  4  0  0  0  0
 16 17  4  0  0  0  0
 17 18  4  0  0  0  0
 18 19  1  0  0  0  0
M  END
>  <Name_Molregno>
405819

>  <Dopamine transporter>
6.18

>  <Norepinephrine transporter>
7.48

>  <Serotonin transporter>
7.77

$$$$
410296
  Marvin  02231216192D 0   1.00000     0.00000     0

 30 33  0  0  1  0  0  0  0  0999 V2000
   -6.4953   -3.8369    0.0000 S   0  0  0  0  0  0  0  0  0
   -7.2098   -4.2494    0.0000 C   0  0  0  0  0  0  0  0  0
   -6.4953   -3.0119    0.0000 C   0  0  0  0  0  0  0  0  0
   -7.2098   -2.5994    0.0000 C   0  0  0  0  0  0  0  0  0
   -7.2098   -1.7744    0.0000 C   0  0  0  0  0  0  0  0  0
   -6.4953   -1.3619    0.0000 C   0  0  0  0  0  0  0  0  0
   -5.7808   -1.7744    0.0000 C   0  0  0  0  0  0  0  0  0
   -5.7808   -2.5994    0.0000 C   0  0  0  0  0  0  0  0  0
   -6.4953   -0.5369    0.0000 C   0  0  0  0  0  0  0  0  0
   -5.7808   -0.1244    0.0000 C   0  0  0  0  0  0  0  0  0
   -5.7808    0.7006    0.0000 C   0  0  0  0  0  0  0  0  0
   -5.0664    1.1131    0.0000 C   0  0  0  0  0  0  0  0  0
   -4.3519    0.7006    0.0000 C   0  0  0  0  0  0  0  0  0
   -3.6374    1.1131    0.0000 O   0  0  0  0  0  0  0  0  0
   -3.6374    1.9381    0.0000 C   0  0  0  0  0  0  0  0  0
   -2.9230    2.3506    0.0000 C   0  0  0  0  0  0  0  0  0
   -2.9230    3.1756    0.0000 C   0  0  0  0  0  0  0  0  0
   -2.2085    3.5881    0.0000 N   0  0  0  0  0  0  0  0  0
   -2.2085    4.4131    0.0000 C   0  0  0  0  0  0  0  0  0
   -1.4940    4.8256    0.0000 C   0  0  0  0  0  0  0  0  0
   -0.7795    4.4131    0.0000 C   0  0  0  0  0  0  0  0  0
   -0.0651    4.8256    0.0000 F   0  0  0  0  0  0  0  0  0
   -0.7795    3.5881    0.0000 C   0  0  0  0  0  0  0  0  0
   -1.4940    3.1756    0.0000 C   0  0  0  0  0  0  0  0  0
   -4.3519   -0.1244    0.0000 C   0  0  0  0  0  0  0  0  0
   -5.0664   -0.5369    0.0000 C   0  0  0  0  0  0  0  0  0
   -6.4953    1.1131    0.0000 C   0  0  0  0  0  0  0  0  0
   -7.2098    0.7006    0.0000 N   0  0  0  0  0  0  0  0  0
   -7.2098   -0.1244    0.0000 C   0  0  0  0  0  0  0  0  0
   -7.9243    1.1131    0.0000 C   0  0  0  0  0  0  0  0  0
  1  2  1  0  0  0  0
  1  3  1  0  0  0  0
  3  4  4  0  0  0  0
  3  8  4  0  0  0  0
  4  5  4  0  0  0  0
  5  6  4  0  0  0  0
  6  7  4  0  0  0  0
  6  9  1  0  0  0  0
  7  8  4  0  0  0  0
  9 10  1  0  0  0  0
  9 29  1  0  0  0  0
 10 11  4  0  0  0  0
 10 26  4  0  0  0  0
 11 12  4  0  0  0  0
 11 27  1  0  0  0  0
 12 13  4  0  0  0  0
 13 14  1  0  0  0  0
 13 25  4  0  0  0  0
 14 15  1  0  0  0  0
 15 16  1  0  0  0  0
 16 17  1  0  0  0  0
 17 18  1  0  0  0  0
 18 19  1  0  0  0  0
 18 24  1  0  0  0  0
 19 20  1  0  0  0  0
 20 21  1  0  0  0  0
 21 22  1  0  0  0  0
 21 23  1  0  0  0  0
 23 24  1  0  0  0  0
 25 26  4  0  0  0  0
 27 28  1  0  0  0  0
 28 29  1  0  0  0  0
 28 30  1  0  0  0  0
M  END
>  <Name_Molregno>
410296

>  <Dopamine transporter>
7.34

>  <HISTAMINE H3>
7.93

>  <Norepinephrine transporter>
6.93

>  <Serotonin transporter>
8.38

$$$$
410302
  Marvin  02231216192D 0   1.00000     0.00000     0

 29 32  0  0  1  0  0  0  0  0999 V2000
   -6.1879   -3.6353    0.0000 S   0  0  0  0  0  0  0  0  0
   -5.4734   -4.0478    0.0000 C   0  0  0  0  0  0  0  0  0
   -6.1879   -2.8103    0.0000 C   0  0  0  0  0  0  0  0  0
   -6.9023   -2.3978    0.0000 C   0  0  0  0  0  0  0  0  0
   -6.9023   -1.5728    0.0000 C   0  0  0  0  0  0  0  0  0
   -6.1879   -1.1603    0.0000 C   0  0  0  0  0  0  0  0  0
   -5.4734   -1.5728    0.0000 C   0  0  0  0  0  0  0  0  0
   -5.4734   -2.3978    0.0000 C   0  0  0  0  0  0  0  0  0
   -6.1879   -0.3353    0.0000 C   0  0  0  0  0  0  0  0  0
   -5.4734    0.0772    0.0000 C   0  0  0  0  0  0  0  0  0
   -5.4734    0.9022    0.0000 C   0  0  0  0  0  0  0  0  0
   -4.7589    1.3147    0.0000 C   0  0  0  0  0  0  0  0  0
   -4.0445    0.9022    0.0000 C   0  0  0  0  0  0  0  0  0
   -3.3300    1.3147    0.0000 O   0  0  0  0  0  0  0  0  0
   -3.3300    2.1397    0.0000 C   0  0  0  0  0  0  0  0  0
   -2.6155    2.5522    0.0000 C   0  0  0  0  0  0  0  0  0
   -2.6155    3.3772    0.0000 C   0  0  0  0  0  0  0  0  0
   -1.9010    3.7897    0.0000 N   0  0  0  0  0  0  0  0  0
   -1.9010    4.6147    0.0000 C   0  0  0  0  0  0  0  0  0
   -1.1866    5.0272    0.0000 C   0  0  0  0  0  0  0  0  0
   -0.4721    4.6147    0.0000 O   0  0  0  0  0  0  0  0  0
   -0.4721    3.7897    0.0000 C   0  0  0  0  0  0  0  0  0
   -1.1866    3.3772    0.0000 C   0  0  0  0  0  0  0  0  0
   -4.0445    0.0772    0.0000 C   0  0  0  0  0  0  0  0  0
   -4.7589   -0.3353    0.0000 C   0  0  0  0  0  0  0  0  0
   -6.1879    1.3147    0.0000 C   0  0  0  0  0  0  0  0  0
   -6.9023    0.9022    0.0000 N   0  0  0  0  0  0  0  0  0
   -6.9023    0.0772    0.0000 C   0  0  0  0  0  0  0  0  0
   -7.6168    1.3147    0.0000 C   0  0  0  0  0  0  0  0  0
  1  2  1  0  0  0  0
  1  3  1  0  0  0  0
  3  4  4  0  0  0  0
  3  8  4  0  0  0  0
  4  5  4  0  0  0  0
  5  6  4  0  0  0  0
  6  7  4  0  0  0  0
  6  9  1  0  0  0  0
  7  8  4  0  0  0  0
  9 10  1  0  0  0  0
  9 28  1  0  0  0  0
 10 11  4  0  0  0  0
 10 25  4  0  0  0  0
 11 12  4  0  0  0  0
 11 26  1  0  0  0  0
 12 13  4  0  0  0  0
 13 14  1  0  0  0  0
 13 24  4  0  0  0  0
 14 15  1  0  0  0  0
 15 16  1  0  0  0  0
 16 17  1  0  0  0  0
 17 18  1  0  0  0  0
 18 19  1  0  0  0  0
 18 23  1  0  0  0  0
 19 20  1  0  0  0  0
 20 21  1  0  0  0  0
 21 22  1  0  0  0  0
 22 23  1  0  0  0  0
 24 25  4  0  0  0  0
 26 27  1  0  0  0  0
 27 28  1  0  0  0  0
 27 29  1  0  0  0  0
M  END
>  <Name_Molregno>
410302

>  <Dopamine transporter>
7.54

>  <HISTAMINE H3>
7.95

>  <Norepinephrine transporter>
6.97

>  <Serotonin transporter>
8.32

$$$$
410303
  Marvin  02231216192D 0   1.00000     0.00000     0

 30 33  0  0  1  0  0  0  0  0999 V2000
  -10.1544   -3.2776    0.0000 O   0  0  0  0  0  0  0  0  0
  -10.1544   -2.4526    0.0000 C   0  0  0  0  0  0  0  0  0
   -9.4400   -2.0401    0.0000 C   0  0  0  0  0  0  0  0  0
   -8.7255   -2.4526    0.0000 N   0  0  0  0  0  0  0  0  0
   -8.7255   -3.2776    0.0000 C   0  0  0  0  0  0  0  0  0
   -9.4400   -3.6901    0.0000 C   0  0  0  0  0  0  0  0  0
   -8.0110   -2.0401    0.0000 C   0  0  0  0  0  0  0  0  0
   -7.2965   -2.4526    0.0000 C   0  0  0  0  0  0  0  0  0
   -6.5821   -2.0401    0.0000 C   0  0  0  0  0  0  0  0  0
   -5.8676   -2.4526    0.0000 O   0  0  0  0  0  0  0  0  0
   -5.1531   -2.0401    0.0000 C   0  0  0  0  0  0  0  0  0
   -4.4387   -2.4526    0.0000 C   0  0  0  0  0  0  0  0  0
   -3.7242   -2.0401    0.0000 C   0  0  0  0  0  0  0  0  0
   -3.7242   -1.2151    0.0000 C   0  0  0  0  0  0  0  0  0
   -4.4387   -0.8026    0.0000 C   0  0  0  0  0  0  0  0  0
   -5.1531   -1.2151    0.0000 C   0  0  0  0  0  0  0  0  0
   -3.0097   -0.8026    0.0000 C   0  0  0  0  0  0  0  0  0
   -2.2953   -1.2151    0.0000 C   0  0  0  0  0  0  0  0  0
   -2.2953   -2.0401    0.0000 N   0  0  0  0  0  0  0  0  0
   -3.0097   -2.4526    0.0000 C   0  0  0  0  0  0  0  0  0
   -1.5808   -2.4526    0.0000 C   0  0  0  0  0  0  0  0  0
   -3.0097    0.0224    0.0000 C   0  0  0  0  0  0  0  0  0
   -3.7242    0.4349    0.0000 C   0  0  0  0  0  0  0  0  0
   -3.7242    1.2599    0.0000 C   0  0  0  0  0  0  0  0  0
   -3.0097    1.6724    0.0000 C   0  0  0  0  0  0  0  0  0
   -3.0097    2.4974    0.0000 O   0  0  0  0  0  0  0  0  0
   -2.2953    2.9099    0.0000 C   0  0  0  0  0  0  0  0  0
   -2.2953    1.2599    0.0000 C   0  0  0  0  0  0  0  0  0
   -2.2953    0.4349    0.0000 C   0  0  0  0  0  0  0  0  0
   -9.4400   -1.2151    0.0000 C   0  0  0  0  0  0  0  0  0
  1  2  1  0  0  0  0
  1  6  1  0  0  0  0
  2  3  1  0  0  0  0
  3  4  1  0  0  0  0
  3 30  1  0  0  0  0
  4  5  1  0  0  0  0
  4  7  1  0  0  0  0
  5  6  1  0  0  0  0
  7  8  1  0  0  0  0
  8  9  1  0  0  0  0
  9 10  1  0  0  0  0
 10 11  1  0  0  0  0
 11 12  4  0  0  0  0
 11 16  4  0  0  0  0
 12 13  4  0  0  0  0
 13 14  4  0  0  0  0
 13 20  1  0  0  0  0
 14 15  4  0  0  0  0
 14 17  1  0  0  0  0
 15 16  4  0  0  0  0
 17 18  1  0  0  0  0
 17 22  1  0  0  0  0
 18 19  1  0  0  0  0
 19 20  1  0  0  0  0
 19 21  1  0  0  0  0
 22 23  4  0  0  0  0
 22 29  4  0  0  0  0
 23 24  4  0  0  0  0
 24 25  4  0  0  0  0
 25 26  1  0  0  0  0
 25 28  4  0  0  0  0
 26 27  1  0  0  0  0
 28 29  4  0  0  0  0
M  END
>  <Name_Molregno>
410303

>  <Dopamine transporter>
6.99

>  <HISTAMINE H3>
8.2

>  <Norepinephrine transporter>
6.92

>  <Serotonin transporter>
7.89

$$$$
411284
  Marvin  02231216192D 0   1.00000     0.00000     0

 20 21  0  0  0  0  0  0  0  0999 V2000
    2.6447    1.4252    0.0000 F   0  0  0  0  0  0  0  0  0
    2.6447    0.6002    0.0000 C   0  0  0  0  0  0  0  0  0
    3.3591    0.1877    0.0000 C   0  0  0  0  0  0  0  0  0
    3.3591   -0.6373    0.0000 C   0  0  0  0  0  0  0  0  0
    4.0736   -1.0498    0.0000 C   0  0  0  0  0  0  0  0  0
    4.7881   -0.6373    0.0000 N   0  0  0  0  0  0  0  0  0
    4.7881    0.1877    0.0000 C   0  0  0  0  0  0  0  0  0
    5.5025   -1.0498    0.0000 C   0  0  0  0  0  0  0  0  0
    2.6447   -1.0498    0.0000 C   0  0  0  0  0  0  0  0  0
    2.6447   -1.8748    0.0000 O   0  0  0  0  0  0  0  0  0
    1.9302   -2.2873    0.0000 C   0  0  0  0  0  0  0  0  0
    1.9302   -3.1123    0.0000 C   0  0  0  0  0  0  0  0  0
    1.2157   -3.5248    0.0000 C   0  0  0  0  0  0  0  0  0
    0.5012   -3.1123    0.0000 C   0  0  0  0  0  0  0  0  0
    0.5012   -2.2873    0.0000 C   0  0  0  0  0  0  0  0  0
    1.2157   -1.8748    0.0000 C   0  0  0  0  0  0  0  0  0
    1.2157   -1.0498    0.0000 N   0  0  0  0  0  0  0  0  0
   -0.2132   -3.5248    0.0000 C   0  0  0  0  0  0  0  0  0
    1.9302   -0.6373    0.0000 C   0  0  0  0  0  0  0  0  0
    1.9302    0.1877    0.0000 C   0  0  0  0  0  0  0  0  0
  1  2  1  0  0  0  0
  2  3  4  0  0  0  0
  2 20  4  0  0  0  0
  3  4  4  0  0  0  0
  4  5  1  0  0  0  0
  4  9  4  0  0  0  0
  5  6  1  0  0  0  0
  6  7  1  0  0  0  0
  6  8  1  0  0  0  0
  9 10  1  0  0  0  0
  9 19  4  0  0  0  0
 10 11  1  0  0  0  0
 11 12  4  0  0  0  0
 11 16  4  0  0  0  0
 12 13  4  0  0  0  0
 13 14  4  0  0  0  0
 14 15  4  0  0  0  0
 14 18  1  0  0  0  0
 15 16  4  0  0  0  0
 16 17  1  0  0  0  0
 19 20  4  0  0  0  0
M  END
>  <Name_Molregno>
411284

>  <Dopamine transporter>
6.3

>  <Norepinephrine transporter>
5.9

>  <Serotonin transporter>
8.1

$$$$
412300
  Marvin  02231216192D 0   1.00000     0.00000     0

 29 33  0  0  1  0  0  0  0  0999 V2000
   -0.4759    0.3104    0.0000 O   0  0  0  0  0  0  0  0  0
    0.3487    0.2846    0.0000 C   0  0  0  0  0  0  0  0  0
    0.7833    0.9859    0.0000 C   0  0  0  0  0  0  0  0  0
    1.6079    0.9601    0.0000 C   0  0  0  0  0  0  0  0  0
    2.0425    1.6614    0.0000 N   0  0  0  0  0  0  0  0  0
    1.6525    2.3884    0.0000 C   0  0  0  0  0  0  0  0  0
    2.0871    3.0896    0.0000 C   0  0  0  0  0  0  0  0  0
    2.9117    3.0639    0.0000 C   0  0  0  0  0  0  0  0  0
    3.3017    2.3368    0.0000 C   0  0  0  0  0  0  0  0  0
    2.8671    1.6356    0.0000 C   0  0  0  0  0  0  0  0  0
   -0.9105   -0.3908    0.0000 C   0  0  0  0  0  0  0  0  0
   -1.7351   -0.3651    0.0000 C   0  0  0  0  0  0  0  0  0
   -2.1697   -1.0663    0.0000 C   0  0  0  0  0  0  0  0  0
   -1.7798   -1.7933    0.0000 C   0  0  0  0  0  0  0  0  0
   -0.9552   -1.8191    0.0000 C   0  0  0  0  0  0  0  0  0
   -0.5205   -1.1178    0.0000 C   0  0  0  0  0  0  0  0  0
   -2.2144   -2.4946    0.0000 C   0  0  0  0  0  0  0  0  0
   -3.0390   -2.4688    0.0000 C   0  0  0  0  0  0  0  0  0
   -3.4290   -1.7418    0.0000 N   0  0  0  0  0  0  0  0  0
   -2.9943   -1.0405    0.0000 C   0  0  0  0  0  0  0  0  0
   -3.5270   -0.4105    0.0000 C   0  0  0  0  0  0  0  0  0
   -4.2907   -0.7224    0.0000 C   0  0  0  0  0  0  0  0  0
   -4.2302   -1.5451    0.0000 C   0  0  0  0  0  0  0  0  0
   -1.8244   -3.2216    0.0000 C   0  0  0  0  0  0  0  0  0
   -0.9998   -3.2473    0.0000 C   0  0  0  0  0  0  0  0  0
   -0.6098   -3.9743    0.0000 C   0  0  0  0  0  0  0  0  0
   -1.0444   -4.6756    0.0000 C   0  0  0  0  0  0  0  0  0
   -1.8690   -4.6498    0.0000 N   0  0  0  0  0  0  0  0  0
   -2.2590   -3.9228    0.0000 C   0  0  0  0  0  0  0  0  0
  1  2  1  0  0  0  0
  1 11  1  0  0  0  0
  2  3  1  0  0  0  0
  3  4  1  0  0  0  0
  4  5  1  0  0  0  0
  5  6  1  0  0  0  0
  5 10  1  0  0  0  0
  6  7  1  0  0  0  0
  7  8  1  0  0  0  0
  8  9  1  0  0  0  0
  9 10  1  0  0  0  0
 11 12  4  0  0  0  0
 11 16  4  0  0  0  0
 12 13  4  0  0  0  0
 13 14  4  0  0  0  0
 13 20  1  0  0  0  0
 14 15  4  0  0  0  0
 14 17  1  0  0  0  0
 15 16  4  0  0  0  0
 17 18  1  0  0  0  0
 17 24  1  0  0  0  0
 18 19  1  0  0  0  0
 19 20  1  0  0  0  0
 19 23  1  0  0  0  0
 20 21  1  0  0  0  0
 21 22  1  0  0  0  0
 22 23  1  0  0  0  0
 24 25  4  0  0  0  0
 24 29  4  0  0  0  0
 25 26  4  0  0  0  0
 26 27  4  0  0  0  0
 27 28  4  0  0  0  0
 28 29  4  0  0  0  0
M  END
>  <Name_Molregno>
412300

>  <Dopamine transporter>
6.97

>  <HISTAMINE H3>
9.1

>  <Norepinephrine transporter>
6.34

>  <Serotonin transporter>
8.08

$$$$
416686
  Marvin  02231216192D 0   1.00000     0.00000     0

 21 23  0  0  0  0  0  0  0  0999 V2000
    0.7473    3.0521    0.0000 Cl  0  0  0  0  0  0  0  0  0
    1.4618    2.6396    0.0000 C   0  0  0  0  0  0  0  0  0
    1.4618    1.8146    0.0000 C   0  0  0  0  0  0  0  0  0
    2.1762    1.4021    0.0000 C   0  0  0  0  0  0  0  0  0
    2.8907    1.8146    0.0000 C   0  0  0  0  0  0  0  0  0
    2.8907    2.6396    0.0000 C   0  0  0  0  0  0  0  0  0
    2.1762    3.0521    0.0000 C   0  0  0  0  0  0  0  0  0
    2.1762    3.8771    0.0000 Cl  0  0  0  0  0  0  0  0  0
    2.1762    0.5771    0.0000 C   0  0  0  0  0  0  0  0  0
    1.5088    0.0922    0.0000 C   0  0  0  0  0  0  0  0  0
    1.7637   -0.6925    0.0000 C   0  0  0  0  0  0  0  0  0
    2.5887   -0.6925    0.0000 C   0  0  0  0  0  0  0  0  0
    2.8437    0.0922    0.0000 C   0  0  0  0  0  0  0  0  0
    3.6283    0.3471    0.0000 C   0  0  0  0  0  0  0  0  0
    3.7998    1.1541    0.0000 O   0  0  0  0  0  0  0  0  0
    4.2414   -0.2049    0.0000 N   0  0  0  0  0  0  0  0  0
    5.0260    0.0500    0.0000 C   0  0  0  0  0  0  0  0  0
    5.6391   -0.5020    0.0000 C   0  0  0  0  0  0  0  0  0
    5.4676   -1.3090    0.0000 O   0  0  0  0  0  0  0  0  0
    4.6830   -1.5639    0.0000 C   0  0  0  0  0  0  0  0  0
    4.0699   -1.0119    0.0000 C   0  0  0  0  0  0  0  0  0
  1  2  1  0  0  0  0
  2  3  4  0  0  0  0
  2  7  4  0  0  0  0
  3  4  4  0  0  0  0
  4  5  4  0  0  0  0
  4  9  1  0  0  0  0
  5  6  4  0  0  0  0
  6  7  4  0  0  0  0
  7  8  1  0  0  0  0
  9 10  1  0  0  0  0
  9 13  2  0  0  0  0
 10 11  1  0  0  0  0
 11 12  1  0  0  0  0
 12 13  1  0  0  0  0
 13 14  1  0  0  0  0
 14 15  2  0  0  0  0
 14 16  1  0  0  0  0
 16 17  1  0  0  0  0
 16 21  1  0  0  0  0
 17 18  1  0  0  0  0
 18 19  1  0  0  0  0
 19 20  1  0  0  0  0
 20 21  1  0  0  0  0
M  END
>  <Name_Molregno>
416686

>  <Dopamine transporter>
4.96

>  <Norepinephrine transporter>
3.52

>  <Serotonin transporter>
3.3

$$$$
416688
  Marvin  02231216192D 0   1.00000     0.00000     0

 20 22  0  0  0  0  0  0  0  0999 V2000
    4.8456    2.3873    0.0000 Cl  0  0  0  0  0  0  0  0  0
    4.1311    1.9748    0.0000 C   0  0  0  0  0  0  0  0  0
    4.1311    1.1498    0.0000 C   0  0  0  0  0  0  0  0  0
    3.4166    0.7373    0.0000 C   0  0  0  0  0  0  0  0  0
    2.7022    1.1498    0.0000 C   0  0  0  0  0  0  0  0  0
    2.7022    1.9748    0.0000 C   0  0  0  0  0  0  0  0  0
    3.4166    2.3873    0.0000 C   0  0  0  0  0  0  0  0  0
    3.4166    3.2123    0.0000 Cl  0  0  0  0  0  0  0  0  0
    3.4166   -0.0877    0.0000 C   0  0  0  0  0  0  0  0  0
    4.0841   -0.5726    0.0000 C   0  0  0  0  0  0  0  0  0
    3.8291   -1.3572    0.0000 C   0  0  0  0  0  0  0  0  0
    3.0041   -1.3572    0.0000 C   0  0  0  0  0  0  0  0  0
    2.7492   -0.5726    0.0000 C   0  0  0  0  0  0  0  0  0
    1.9646   -0.3177    0.0000 C   0  0  0  0  0  0  0  0  0
    1.3515   -0.8697    0.0000 O   0  0  0  0  0  0  0  0  0
    1.7930    0.4893    0.0000 N   0  0  0  0  0  0  0  0  0
    1.0394    0.8248    0.0000 C   0  0  0  0  0  0  0  0  0
    1.1256    1.6453    0.0000 C   0  0  0  0  0  0  0  0  0
    1.9326    1.8169    0.0000 C   0  0  0  0  0  0  0  0  0
    2.3451    1.1024    0.0000 C   0  0  0  0  0  0  0  0  0
  1  2  1  0  0  0  0
  2  3  4  0  0  0  0
  2  7  4  0  0  0  0
  3  4  4  0  0  0  0
  4  5  4  0  0  0  0
  4  9  1  0  0  0  0
  5  6  4  0  0  0  0
  6  7  4  0  0  0  0
  7  8  1  0  0  0  0
  9 10  1  0  0  0  0
  9 13  2  0  0  0  0
 10 11  1  0  0  0  0
 11 12  1  0  0  0  0
 12 13  1  0  0  0  0
 13 14  1  0  0  0  0
 14 15  2  0  0  0  0
 14 16  1  0  0  0  0
 16 17  1  0  0  0  0
 16 20  1  0  0  0  0
 17 18  1  0  0  0  0
 18 19  1  0  0  0  0
 19 20  1  0  0  0  0
M  END
>  <Name_Molregno>
416688

>  <Dopamine transporter>
4.24

>  <Norepinephrine transporter>
3.39

>  <Serotonin transporter>
3.28

$$$$
416696
  Marvin  02231216192D 0   1.00000     0.00000     0

 20 21  0  0  0  0  0  0  0  0999 V2000
    5.0182    2.9084    0.0000 Cl  0  0  0  0  0  0  0  0  0
    4.3038    2.4959    0.0000 C   0  0  0  0  0  0  0  0  0
    4.3038    1.6709    0.0000 C   0  0  0  0  0  0  0  0  0
    3.5893    1.2584    0.0000 C   0  0  0  0  0  0  0  0  0
    2.8748    1.6709    0.0000 C   0  0  0  0  0  0  0  0  0
    2.8748    2.4959    0.0000 C   0  0  0  0  0  0  0  0  0
    3.5893    2.9084    0.0000 C   0  0  0  0  0  0  0  0  0
    3.5893    3.7334    0.0000 Cl  0  0  0  0  0  0  0  0  0
    3.5893    0.4334    0.0000 C   0  0  0  0  0  0  0  0  0
    4.2567   -0.0515    0.0000 C   0  0  0  0  0  0  0  0  0
    4.0018   -0.8362    0.0000 C   0  0  0  0  0  0  0  0  0
    3.1768   -0.8362    0.0000 C   0  0  0  0  0  0  0  0  0
    2.9219   -0.0515    0.0000 C   0  0  0  0  0  0  0  0  0
    2.1372    0.2034    0.0000 C   0  0  0  0  0  0  0  0  0
    1.9657    1.0104    0.0000 O   0  0  0  0  0  0  0  0  0
    1.5241   -0.3486    0.0000 N   0  0  0  0  0  0  0  0  0
    0.7395   -0.0937    0.0000 C   0  0  0  0  0  0  0  0  0
    0.1264   -0.6457    0.0000 C   0  0  0  0  0  0  0  0  0
    1.6957   -1.1556    0.0000 C   0  0  0  0  0  0  0  0  0
    1.0826   -1.7076    0.0000 C   0  0  0  0  0  0  0  0  0
  1  2  1  0  0  0  0
  2  3  4  0  0  0  0
  2  7  4  0  0  0  0
  3  4  4  0  0  0  0
  4  5  4  0  0  0  0
  4  9  1  0  0  0  0
  5  6  4  0  0  0  0
  6  7  4  0  0  0  0
  7  8  1  0  0  0  0
  9 10  1  0  0  0  0
  9 13  2  0  0  0  0
 10 11  1  0  0  0  0
 11 12  1  0  0  0  0
 12 13  1  0  0  0  0
 13 14  1  0  0  0  0
 14 15  2  0  0  0  0
 14 16  1  0  0  0  0
 16 17  1  0  0  0  0
 16 19  1  0  0  0  0
 17 18  1  0  0  0  0
 19 20  1  0  0  0  0
M  END
>  <Name_Molregno>
416696

>  <Dopamine transporter>
4.03

>  <Norepinephrine transporter>
3.68

>  <Serotonin transporter>
3.52

$$$$
416697
  Marvin  02231216192D 0   1.00000     0.00000     0

 20 22  0  0  0  0  0  0  0  0999 V2000
    0.3185    1.0446    0.0000 Cl  0  0  0  0  0  0  0  0  0
    0.9316    0.4925    0.0000 C   0  0  0  0  0  0  0  0  0
    1.7162    0.7475    0.0000 C   0  0  0  0  0  0  0  0  0
    2.3293    0.1954    0.0000 C   0  0  0  0  0  0  0  0  0
    2.1577   -0.6115    0.0000 C   0  0  0  0  0  0  0  0  0
    1.3731   -0.8665    0.0000 C   0  0  0  0  0  0  0  0  0
    0.7600   -0.3144    0.0000 C   0  0  0  0  0  0  0  0  0
   -0.0246   -0.5694    0.0000 Cl  0  0  0  0  0  0  0  0  0
    3.1139    0.4504    0.0000 C   0  0  0  0  0  0  0  0  0
    3.3688    1.2350    0.0000 C   0  0  0  0  0  0  0  0  0
    4.1938    1.2350    0.0000 C   0  0  0  0  0  0  0  0  0
    4.4488    0.4504    0.0000 C   0  0  0  0  0  0  0  0  0
    3.7813   -0.0345    0.0000 C   0  0  0  0  0  0  0  0  0
    3.7813   -0.8595    0.0000 C   0  0  0  0  0  0  0  0  0
    3.0669   -1.2720    0.0000 O   0  0  0  0  0  0  0  0  0
    4.4958   -1.2720    0.0000 N   0  0  0  0  0  0  0  0  0
    4.4958   -2.0970    0.0000 C   0  0  0  0  0  0  0  0  0
    5.0792   -2.6804    0.0000 C   0  0  0  0  0  0  0  0  0
    4.4958   -3.2638    0.0000 C   0  0  0  0  0  0  0  0  0
    3.9124   -2.6804    0.0000 C   0  0  0  0  0  0  0  0  0
  1  2  1  0  0  0  0
  2  3  4  0  0  0  0
  2  7  4  0  0  0  0
  3  4  4  0  0  0  0
  4  5  4  0  0  0  0
  4  9  1  0  0  0  0
  5  6  4  0  0  0  0
  6  7  4  0  0  0  0
  7  8  1  0  0  0  0
  9 10  1  0  0  0  0
  9 13  2  0  0  0  0
 10 11  1  0  0  0  0
 11 12  1  0  0  0  0
 12 13  1  0  0  0  0
 13 14  1  0  0  0  0
 14 15  2  0  0  0  0
 14 16  1  0  0  0  0
 16 17  1  0  0  0  0
 17 18  1  0  0  0  0
 17 20  1  0  0  0  0
 18 19  1  0  0  0  0
 19 20  1  0  0  0  0
M  END
>  <Name_Molregno>
416697

>  <Dopamine transporter>
5.05

>  <Norepinephrine transporter>
4.3

>  <Serotonin transporter>
3

$$$$
416708
  Marvin  02231216192D 0   1.00000     0.00000     0

 19 20  0  0  0  0  0  0  0  0999 V2000
    2.6358   -3.2307    0.0000 Cl  0  0  0  0  0  0  0  0  0
    2.8073   -2.4238    0.0000 C   0  0  0  0  0  0  0  0  0
    2.1942   -1.8717    0.0000 C   0  0  0  0  0  0  0  0  0
    2.3658   -1.0648    0.0000 C   0  0  0  0  0  0  0  0  0
    3.1504   -0.8098    0.0000 C   0  0  0  0  0  0  0  0  0
    3.7635   -1.3619    0.0000 C   0  0  0  0  0  0  0  0  0
    3.5920   -2.1688    0.0000 C   0  0  0  0  0  0  0  0  0
    4.2050   -2.7209    0.0000 Cl  0  0  0  0  0  0  0  0  0
    1.7527   -0.5127    0.0000 C   0  0  0  0  0  0  0  0  0
    0.9457   -0.6843    0.0000 C   0  0  0  0  0  0  0  0  0
    0.5332    0.0302    0.0000 C   0  0  0  0  0  0  0  0  0
    1.0852    0.6433    0.0000 C   0  0  0  0  0  0  0  0  0
    1.8389    0.3077    0.0000 C   0  0  0  0  0  0  0  0  0
    2.5534    0.7202    0.0000 C   0  0  0  0  0  0  0  0  0
    2.5534    1.5452    0.0000 O   0  0  0  0  0  0  0  0  0
    3.2678    0.3077    0.0000 N   0  0  0  0  0  0  0  0  0
    3.9823    0.7202    0.0000 C   0  0  0  0  0  0  0  0  0
    4.6968    0.3077    0.0000 C   0  0  0  0  0  0  0  0  0
    5.4113    0.7202    0.0000 F   0  0  0  0  0  0  0  0  0
  1  2  1  0  0  0  0
  2  3  4  0  0  0  0
  2  7  4  0  0  0  0
  3  4  4  0  0  0  0
  4  5  4  0  0  0  0
  4  9  1  0  0  0  0
  5  6  4  0  0  0  0
  6  7  4  0  0  0  0
  7  8  1  0  0  0  0
  9 10  1  0  0  0  0
  9 13  2  0  0  0  0
 10 11  1  0  0  0  0
 11 12  1  0  0  0  0
 12 13  1  0  0  0  0
 13 14  1  0  0  0  0
 14 15  2  0  0  0  0
 14 16  1  0  0  0  0
 16 17  1  0  0  0  0
 17 18  1  0  0  0  0
 18 19  1  0  0  0  0
M  END
>  <Name_Molregno>
416708

>  <Dopamine transporter>
7.15

>  <Norepinephrine transporter>
5.1

>  <Serotonin transporter>
3.3

$$$$
416709
  Marvin  02231216192D 0   1.00000     0.00000     0

 19 20  0  0  0  0  0  0  0  0999 V2000
    4.7603    2.7953    0.0000 Cl  0  0  0  0  0  0  0  0  0
    4.0459    2.3828    0.0000 C   0  0  0  0  0  0  0  0  0
    4.0459    1.5578    0.0000 C   0  0  0  0  0  0  0  0  0
    3.3314    1.1453    0.0000 C   0  0  0  0  0  0  0  0  0
    2.6169    1.5578    0.0000 C   0  0  0  0  0  0  0  0  0
    2.6169    2.3828    0.0000 C   0  0  0  0  0  0  0  0  0
    3.3314    2.7953    0.0000 C   0  0  0  0  0  0  0  0  0
    3.3314    3.6203    0.0000 Cl  0  0  0  0  0  0  0  0  0
    3.3314    0.3203    0.0000 C   0  0  0  0  0  0  0  0  0
    3.9988   -0.1647    0.0000 C   0  0  0  0  0  0  0  0  0
    3.7439   -0.9493    0.0000 C   0  0  0  0  0  0  0  0  0
    2.9189   -0.9493    0.0000 C   0  0  0  0  0  0  0  0  0
    2.6639   -0.1647    0.0000 C   0  0  0  0  0  0  0  0  0
    1.8793    0.0903    0.0000 C   0  0  0  0  0  0  0  0  0
    1.7078    0.8972    0.0000 O   0  0  0  0  0  0  0  0  0
    1.2662   -0.4618    0.0000 N   0  0  0  0  0  0  0  0  0
    0.4816   -0.2068    0.0000 O   0  0  0  0  0  0  0  0  0
   -0.1315   -0.7589    0.0000 C   0  0  0  0  0  0  0  0  0
    1.4378   -1.2687    0.0000 C   0  0  0  0  0  0  0  0  0
  1  2  1  0  0  0  0
  2  3  4  0  0  0  0
  2  7  4  0  0  0  0
  3  4  4  0  0  0  0
  4  5  4  0  0  0  0
  4  9  1  0  0  0  0
  5  6  4  0  0  0  0
  6  7  4  0  0  0  0
  7  8  1  0  0  0  0
  9 10  1  0  0  0  0
  9 13  2  0  0  0  0
 10 11  1  0  0  0  0
 11 12  1  0  0  0  0
 12 13  1  0  0  0  0
 13 14  1  0  0  0  0
 14 15  2  0  0  0  0
 14 16  1  0  0  0  0
 16 17  1  0  0  0  0
 16 19  1  0  0  0  0
 17 18  1  0  0  0  0
M  END
>  <Name_Molregno>
416709

>  <Dopamine transporter>
5.19

>  <Norepinephrine transporter>
3.6

>  <Serotonin transporter>
3.27

$$$$
416710
  Marvin  02231216192D 0   1.00000     0.00000     0

 18 19  0  0  0  0  0  0  0  0999 V2000
    4.5614    2.6730    0.0000 Cl  0  0  0  0  0  0  0  0  0
    3.8469    2.2605    0.0000 C   0  0  0  0  0  0  0  0  0
    3.8469    1.4355    0.0000 C   0  0  0  0  0  0  0  0  0
    3.1324    1.0230    0.0000 C   0  0  0  0  0  0  0  0  0
    2.4180    1.4355    0.0000 C   0  0  0  0  0  0  0  0  0
    2.4180    2.2605    0.0000 C   0  0  0  0  0  0  0  0  0
    3.1324    2.6730    0.0000 C   0  0  0  0  0  0  0  0  0
    3.1324    3.4980    0.0000 Cl  0  0  0  0  0  0  0  0  0
    3.1324    0.1980    0.0000 C   0  0  0  0  0  0  0  0  0
    3.7999   -0.2870    0.0000 C   0  0  0  0  0  0  0  0  0
    3.5449   -1.0716    0.0000 C   0  0  0  0  0  0  0  0  0
    2.7199   -1.0716    0.0000 C   0  0  0  0  0  0  0  0  0
    2.4650   -0.2870    0.0000 C   0  0  0  0  0  0  0  0  0
    1.6804   -0.0320    0.0000 C   0  0  0  0  0  0  0  0  0
    1.5088    0.7749    0.0000 O   0  0  0  0  0  0  0  0  0
    1.0673   -0.5841    0.0000 N   0  0  0  0  0  0  0  0  0
    0.2826   -0.3291    0.0000 O   0  0  0  0  0  0  0  0  0
   -0.3304   -0.8812    0.0000 C   0  0  0  0  0  0  0  0  0
  1  2  1  0  0  0  0
  2  3  4  0  0  0  0
  2  7  4  0  0  0  0
  3  4  4  0  0  0  0
  4  5  4  0  0  0  0
  4  9  1  0  0  0  0
  5  6  4  0  0  0  0
  6  7  4  0  0  0  0
  7  8  1  0  0  0  0
  9 10  1  0  0  0  0
  9 13  2  0  0  0  0
 10 11  1  0  0  0  0
 11 12  1  0  0  0  0
 12 13  1  0  0  0  0
 13 14  1  0  0  0  0
 14 15  2  0  0  0  0
 14 16  1  0  0  0  0
 16 17  1  0  0  0  0
 17 18  1  0  0  0  0
M  END
>  <Name_Molregno>
416710

>  <Dopamine transporter>
6.08

>  <Norepinephrine transporter>
5.04

>  <Serotonin transporter>
3.3

$$$$
416711
  Marvin  02231216192D 0   1.00000     0.00000     0

 22 24  0  0  0  0  0  0  0  0999 V2000
    5.7420    1.4599    0.0000 Cl  0  0  0  0  0  0  0  0  0
    5.0275    1.0474    0.0000 C   0  0  0  0  0  0  0  0  0
    5.0275    0.2224    0.0000 C   0  0  0  0  0  0  0  0  0
    4.3130   -0.1901    0.0000 C   0  0  0  0  0  0  0  0  0
    3.5986    0.2224    0.0000 C   0  0  0  0  0  0  0  0  0
    3.5986    1.0474    0.0000 C   0  0  0  0  0  0  0  0  0
    4.3130    1.4599    0.0000 C   0  0  0  0  0  0  0  0  0
    4.3130    2.2849    0.0000 Cl  0  0  0  0  0  0  0  0  0
    4.3130   -1.0151    0.0000 C   0  0  0  0  0  0  0  0  0
    4.9805   -1.5000    0.0000 C   0  0  0  0  0  0  0  0  0
    4.7255   -2.2847    0.0000 C   0  0  0  0  0  0  0  0  0
    3.9005   -2.2847    0.0000 C   0  0  0  0  0  0  0  0  0
    3.6456   -1.5000    0.0000 C   0  0  0  0  0  0  0  0  0
    2.8610   -1.2451    0.0000 C   0  0  0  0  0  0  0  0  0
    2.2479   -1.7971    0.0000 O   0  0  0  0  0  0  0  0  0
    2.6895   -0.4381    0.0000 N   0  0  0  0  0  0  0  0  0
    1.9048   -0.1832    0.0000 C   0  0  0  0  0  0  0  0  0
    1.7333    0.6238    0.0000 C   0  0  0  0  0  0  0  0  0
    0.9796    0.9593    0.0000 S   0  0  0  0  0  0  0  0  0
    1.0659    1.7798    0.0000 C   0  0  0  0  0  0  0  0  0
    1.8728    1.9514    0.0000 C   0  0  0  0  0  0  0  0  0
    2.2853    1.2369    0.0000 C   0  0  0  0  0  0  0  0  0
  1  2  1  0  0  0  0
  2  3  4  0  0  0  0
  2  7  4  0  0  0  0
  3  4  4  0  0  0  0
  4  5  4  0  0  0  0
  4  9  1  0  0  0  0
  5  6  4  0  0  0  0
  6  7  4  0  0  0  0
  7  8  1  0  0  0  0
  9 10  1  0  0  0  0
  9 13  2  0  0  0  0
 10 11  1  0  0  0  0
 11 12  1  0  0  0  0
 12 13  1  0  0  0  0
 13 14  1  0  0  0  0
 14 15  2  0  0  0  0
 14 16  1  0  0  0  0
 16 17  1  0  0  0  0
 17 18  1  0  0  0  0
 18 19  4  0  0  0  0
 18 22  4  0  0  0  0
 19 20  4  0  0  0  0
 20 21  4  0  0  0  0
 21 22  4  0  0  0  0
M  END
>  <Name_Molregno>
416711

>  <Dopamine transporter>
6.85

>  <Norepinephrine transporter>
4.74

>  <Serotonin transporter>
3.96

$$$$
416712
  Marvin  02231216192D 0   1.00000     0.00000     0

 22 24  0  0  0  0  0  0  0  0999 V2000
    5.7420    1.4599    0.0000 Cl  0  0  0  0  0  0  0  0  0
    5.0275    1.0474    0.0000 C   0  0  0  0  0  0  0  0  0
    5.0275    0.2224    0.0000 C   0  0  0  0  0  0  0  0  0
    4.3130   -0.1901    0.0000 C   0  0  0  0  0  0  0  0  0
    3.5986    0.2224    0.0000 C   0  0  0  0  0  0  0  0  0
    3.5986    1.0474    0.0000 C   0  0  0  0  0  0  0  0  0
    4.3130    1.4599    0.0000 C   0  0  0  0  0  0  0  0  0
    4.3130    2.2849    0.0000 Cl  0  0  0  0  0  0  0  0  0
    4.3130   -1.0151    0.0000 C   0  0  0  0  0  0  0  0  0
    4.9805   -1.5000    0.0000 C   0  0  0  0  0  0  0  0  0
    4.7255   -2.2847    0.0000 C   0  0  0  0  0  0  0  0  0
    3.9005   -2.2847    0.0000 C   0  0  0  0  0  0  0  0  0
    3.6456   -1.5000    0.0000 C   0  0  0  0  0  0  0  0  0
    2.8610   -1.2451    0.0000 C   0  0  0  0  0  0  0  0  0
    2.2479   -1.7971    0.0000 O   0  0  0  0  0  0  0  0  0
    2.6895   -0.4381    0.0000 N   0  0  0  0  0  0  0  0  0
    1.9048   -0.1832    0.0000 C   0  0  0  0  0  0  0  0  0
    1.7333    0.6238    0.0000 C   0  0  0  0  0  0  0  0  0
    0.9796    0.9593    0.0000 O   0  0  0  0  0  0  0  0  0
    1.0659    1.7798    0.0000 C   0  0  0  0  0  0  0  0  0
    1.8728    1.9514    0.0000 C   0  0  0  0  0  0  0  0  0
    2.2853    1.2369    0.0000 C   0  0  0  0  0  0  0  0  0
  1  2  1  0  0  0  0
  2  3  4  0  0  0  0
  2  7  4  0  0  0  0
  3  4  4  0  0  0  0
  4  5  4  0  0  0  0
  4  9  1  0  0  0  0
  5  6  4  0  0  0  0
  6  7  4  0  0  0  0
  7  8  1  0  0  0  0
  9 10  1  0  0  0  0
  9 13  2  0  0  0  0
 10 11  1  0  0  0  0
 11 12  1  0  0  0  0
 12 13  1  0  0  0  0
 13 14  1  0  0  0  0
 14 15  2  0  0  0  0
 14 16  1  0  0  0  0
 16 17  1  0  0  0  0
 17 18  1  0  0  0  0
 18 19  4  0  0  0  0
 18 22  4  0  0  0  0
 19 20  4  0  0  0  0
 20 21  4  0  0  0  0
 21 22  4  0  0  0  0
M  END
>  <Name_Molregno>
416712

>  <Dopamine transporter>
7.52

>  <Norepinephrine transporter>
4.92

>  <Serotonin transporter>
4.62

$$$$
416713
  Marvin  02231216192D 0   1.00000     0.00000     0

 22 24  0  0  0  0  0  0  0  0999 V2000
    5.7532    2.4646    0.0000 Cl  0  0  0  0  0  0  0  0  0
    5.0387    2.0521    0.0000 C   0  0  0  0  0  0  0  0  0
    5.0387    1.2271    0.0000 C   0  0  0  0  0  0  0  0  0
    4.3243    0.8146    0.0000 C   0  0  0  0  0  0  0  0  0
    3.6098    1.2271    0.0000 C   0  0  0  0  0  0  0  0  0
    3.6098    2.0521    0.0000 C   0  0  0  0  0  0  0  0  0
    4.3243    2.4646    0.0000 C   0  0  0  0  0  0  0  0  0
    4.3243    3.2896    0.0000 Cl  0  0  0  0  0  0  0  0  0
    4.3243   -0.0104    0.0000 C   0  0  0  0  0  0  0  0  0
    4.9917   -0.4953    0.0000 C   0  0  0  0  0  0  0  0  0
    4.7368   -1.2799    0.0000 C   0  0  0  0  0  0  0  0  0
    3.9118   -1.2799    0.0000 C   0  0  0  0  0  0  0  0  0
    3.6568   -0.4953    0.0000 C   0  0  0  0  0  0  0  0  0
    2.8722   -0.2404    0.0000 C   0  0  0  0  0  0  0  0  0
    2.2591   -0.7924    0.0000 O   0  0  0  0  0  0  0  0  0
    1.4745   -0.5375    0.0000 C   0  0  0  0  0  0  0  0  0
    0.8614   -1.0895    0.0000 C   0  0  0  0  0  0  0  0  0
    0.0768   -0.8345    0.0000 C   0  0  0  0  0  0  0  0  0
   -0.0948   -0.0276    0.0000 C   0  0  0  0  0  0  0  0  0
    0.5183    0.5245    0.0000 C   0  0  0  0  0  0  0  0  0
    1.3030    0.2695    0.0000 C   0  0  0  0  0  0  0  0  0
    2.7007    0.5666    0.0000 O   0  0  0  0  0  0  0  0  0
  1  2  1  0  0  0  0
  2  3  4  0  0  0  0
  2  7  4  0  0  0  0
  3  4  4  0  0  0  0
  4  5  4  0  0  0  0
  4  9  1  0  0  0  0
  5  6  4  0  0  0  0
  6  7  4  0  0  0  0
  7  8  1  0  0  0  0
  9 10  1  0  0  0  0
  9 13  2  0  0  0  0
 10 11  1  0  0  0  0
 11 12  1  0  0  0  0
 12 13  1  0  0  0  0
 13 14  1  0  0  0  0
 14 15  1  0  0  0  0
 14 22  2  0  0  0  0
 15 16  1  0  0  0  0
 16 17  1  0  0  0  0
 16 21  1  0  0  0  0
 17 18  1  0  0  0  0
 18 19  1  0  0  0  0
 19 20  1  0  0  0  0
 20 21  1  0  0  0  0
M  END
>  <Name_Molregno>
416713

>  <Dopamine transporter>
5.85

>  <Norepinephrine transporter>
3.98

>  <Serotonin transporter>
3.15

$$$$
416714
  Marvin  02231216192D 0   1.00000     0.00000     0

 19 20  0  0  0  0  0  0  0  0999 V2000
    4.7694    2.7805    0.0000 Cl  0  0  0  0  0  0  0  0  0
    4.0549    2.3680    0.0000 C   0  0  0  0  0  0  0  0  0
    4.0549    1.5430    0.0000 C   0  0  0  0  0  0  0  0  0
    3.3404    1.1305    0.0000 C   0  0  0  0  0  0  0  0  0
    2.6260    1.5430    0.0000 C   0  0  0  0  0  0  0  0  0
    2.6260    2.3680    0.0000 C   0  0  0  0  0  0  0  0  0
    3.3404    2.7805    0.0000 C   0  0  0  0  0  0  0  0  0
    3.3404    3.6055    0.0000 Cl  0  0  0  0  0  0  0  0  0
    3.3404    0.3055    0.0000 C   0  0  0  0  0  0  0  0  0
    4.0079   -0.1794    0.0000 C   0  0  0  0  0  0  0  0  0
    3.7529   -0.9640    0.0000 C   0  0  0  0  0  0  0  0  0
    2.9279   -0.9640    0.0000 C   0  0  0  0  0  0  0  0  0
    2.6730   -0.1794    0.0000 C   0  0  0  0  0  0  0  0  0
    1.8884    0.0755    0.0000 C   0  0  0  0  0  0  0  0  0
    1.2753   -0.4765    0.0000 O   0  0  0  0  0  0  0  0  0
    0.4907   -0.2216    0.0000 C   0  0  0  0  0  0  0  0  0
   -0.1224   -0.7736    0.0000 C   0  0  0  0  0  0  0  0  0
    0.3191    0.5854    0.0000 C   0  0  0  0  0  0  0  0  0
    1.7168    0.8825    0.0000 O   0  0  0  0  0  0  0  0  0
  1  2  1  0  0  0  0
  2  3  4  0  0  0  0
  2  7  4  0  0  0  0
  3  4  4  0  0  0  0
  4  5  4  0  0  0  0
  4  9  1  0  0  0  0
  5  6  4  0  0  0  0
  6  7  4  0  0  0  0
  7  8  1  0  0  0  0
  9 10  1  0  0  0  0
  9 13  2  0  0  0  0
 10 11  1  0  0  0  0
 11 12  1  0  0  0  0
 12 13  1  0  0  0  0
 13 14  1  0  0  0  0
 14 15  1  0  0  0  0
 14 19  2  0  0  0  0
 15 16  1  0  0  0  0
 16 17  1  0  0  0  0
 16 18  1  0  0  0  0
M  END
>  <Name_Molregno>
416714

>  <Dopamine transporter>
5.59

>  <Norepinephrine transporter>
4.59

>  <Serotonin transporter>
3.3

$$$$
416715
  Marvin  02231216192D 0   1.00000     0.00000     0

 19 20  0  0  0  0  0  0  0  0999 V2000
    2.6358   -3.2307    0.0000 Cl  0  0  0  0  0  0  0  0  0
    2.8073   -2.4238    0.0000 C   0  0  0  0  0  0  0  0  0
    2.1942   -1.8717    0.0000 C   0  0  0  0  0  0  0  0  0
    2.3658   -1.0648    0.0000 C   0  0  0  0  0  0  0  0  0
    3.1504   -0.8098    0.0000 C   0  0  0  0  0  0  0  0  0
    3.7635   -1.3619    0.0000 C   0  0  0  0  0  0  0  0  0
    3.5920   -2.1688    0.0000 C   0  0  0  0  0  0  0  0  0
    4.2050   -2.7209    0.0000 Cl  0  0  0  0  0  0  0  0  0
    1.7527   -0.5127    0.0000 C   0  0  0  0  0  0  0  0  0
    0.9457   -0.6843    0.0000 C   0  0  0  0  0  0  0  0  0
    0.5332    0.0302    0.0000 C   0  0  0  0  0  0  0  0  0
    1.0852    0.6433    0.0000 C   0  0  0  0  0  0  0  0  0
    1.8389    0.3077    0.0000 C   0  0  0  0  0  0  0  0  0
    2.5534    0.7202    0.0000 C   0  0  0  0  0  0  0  0  0
    3.2678    0.3077    0.0000 O   0  0  0  0  0  0  0  0  0
    3.9823    0.7202    0.0000 C   0  0  0  0  0  0  0  0  0
    4.6968    0.3077    0.0000 C   0  0  0  0  0  0  0  0  0
    5.4113    0.7202    0.0000 O   0  0  0  0  0  0  0  0  0
    2.5534    1.5452    0.0000 O   0  0  0  0  0  0  0  0  0
  1  2  1  0  0  0  0
  2  3  4  0  0  0  0
  2  7  4  0  0  0  0
  3  4  4  0  0  0  0
  4  5  4  0  0  0  0
  4  9  1  0  0  0  0
  5  6  4  0  0  0  0
  6  7  4  0  0  0  0
  7  8  1  0  0  0  0
  9 10  1  0  0  0  0
  9 13  2  0  0  0  0
 10 11  1  0  0  0  0
 11 12  1  0  0  0  0
 12 13  1  0  0  0  0
 13 14  1  0  0  0  0
 14 15  1  0  0  0  0
 14 19  2  0  0  0  0
 15 16  1  0  0  0  0
 16 17  1  0  0  0  0
 17 18  1  0  0  0  0
M  END
>  <Name_Molregno>
416715

>  <Dopamine transporter>
6.52

>  <Norepinephrine transporter>
5.05

>  <Serotonin transporter>
4.3

$$$$
416716
  Marvin  02231216192D 0   1.00000     0.00000     0

 19 20  0  0  0  0  0  0  0  0999 V2000
    2.6358   -3.2307    0.0000 Cl  0  0  0  0  0  0  0  0  0
    2.8073   -2.4238    0.0000 C   0  0  0  0  0  0  0  0  0
    2.1942   -1.8717    0.0000 C   0  0  0  0  0  0  0  0  0
    2.3658   -1.0648    0.0000 C   0  0  0  0  0  0  0  0  0
    3.1504   -0.8098    0.0000 C   0  0  0  0  0  0  0  0  0
    3.7635   -1.3619    0.0000 C   0  0  0  0  0  0  0  0  0
    3.5920   -2.1688    0.0000 C   0  0  0  0  0  0  0  0  0
    4.2050   -2.7209    0.0000 Cl  0  0  0  0  0  0  0  0  0
    1.7527   -0.5127    0.0000 C   0  0  0  0  0  0  0  0  0
    0.9457   -0.6843    0.0000 C   0  0  0  0  0  0  0  0  0
    0.5332    0.0302    0.0000 C   0  0  0  0  0  0  0  0  0
    1.0852    0.6433    0.0000 C   0  0  0  0  0  0  0  0  0
    1.8389    0.3077    0.0000 C   0  0  0  0  0  0  0  0  0
    2.5534    0.7202    0.0000 C   0  0  0  0  0  0  0  0  0
    3.2678    0.3077    0.0000 O   0  0  0  0  0  0  0  0  0
    3.9823    0.7202    0.0000 C   0  0  0  0  0  0  0  0  0
    4.6968    0.3077    0.0000 C   0  0  0  0  0  0  0  0  0
    5.4113    0.7202    0.0000 F   0  0  0  0  0  0  0  0  0
    2.5534    1.5452    0.0000 O   0  0  0  0  0  0  0  0  0
  1  2  1  0  0  0  0
  2  3  4  0  0  0  0
  2  7  4  0  0  0  0
  3  4  4  0  0  0  0
  4  5  4  0  0  0  0
  4  9  1  0  0  0  0
  5  6  4  0  0  0  0
  6  7  4  0  0  0  0
  7  8  1  0  0  0  0
  9 10  1  0  0  0  0
  9 13  2  0  0  0  0
 10 11  1  0  0  0  0
 11 12  1  0  0  0  0
 12 13  1  0  0  0  0
 13 14  1  0  0  0  0
 14 15  1  0  0  0  0
 14 19  2  0  0  0  0
 15 16  1  0  0  0  0
 16 17  1  0  0  0  0
 17 18  1  0  0  0  0
M  END
>  <Name_Molregno>
416716

>  <Dopamine transporter>
6.3

>  <Norepinephrine transporter>
5.24

>  <Serotonin transporter>
3.41

$$$$
416717
  Marvin  02231216192D 0   1.00000     0.00000     0

 21 22  0  0  0  0  0  0  0  0999 V2000
    0.2745   -2.2938    0.0000 Cl  0  0  0  0  0  0  0  0  0
    1.0591   -2.0389    0.0000 C   0  0  0  0  0  0  0  0  0
    1.2306   -1.2319    0.0000 C   0  0  0  0  0  0  0  0  0
    2.0152   -0.9770    0.0000 C   0  0  0  0  0  0  0  0  0
    2.6283   -1.5290    0.0000 C   0  0  0  0  0  0  0  0  0
    2.4568   -2.3360    0.0000 C   0  0  0  0  0  0  0  0  0
    1.6722   -2.5909    0.0000 C   0  0  0  0  0  0  0  0  0
    1.5007   -3.3979    0.0000 Cl  0  0  0  0  0  0  0  0  0
    2.1868   -0.1700    0.0000 C   0  0  0  0  0  0  0  0  0
    1.6347    0.4431    0.0000 C   0  0  0  0  0  0  0  0  0
    2.0472    1.1575    0.0000 C   0  0  0  0  0  0  0  0  0
    2.8542    0.9860    0.0000 C   0  0  0  0  0  0  0  0  0
    2.9404    0.1655    0.0000 C   0  0  0  0  0  0  0  0  0
    3.6549   -0.2470    0.0000 C   0  0  0  0  0  0  0  0  0
    4.3694    0.1655    0.0000 O   0  0  0  0  0  0  0  0  0
    5.0839   -0.2470    0.0000 C   0  0  0  0  0  0  0  0  0
    5.7983    0.1655    0.0000 C   0  0  0  0  0  0  0  0  0
    6.5128    0.5780    0.0000 F   0  0  0  0  0  0  0  0  0
    6.2108   -0.5489    0.0000 F   0  0  0  0  0  0  0  0  0
    5.3858    0.8800    0.0000 F   0  0  0  0  0  0  0  0  0
    3.6549   -1.0720    0.0000 O   0  0  0  0  0  0  0  0  0
  1  2  1  0  0  0  0
  2  3  4  0  0  0  0
  2  7  4  0  0  0  0
  3  4  4  0  0  0  0
  4  5  4  0  0  0  0
  4  9  1  0  0  0  0
  5  6  4  0  0  0  0
  6  7  4  0  0  0  0
  7  8  1  0  0  0  0
  9 10  1  0  0  0  0
  9 13  2  0  0  0  0
 10 11  1  0  0  0  0
 11 12  1  0  0  0  0
 12 13  1  0  0  0  0
 13 14  1  0  0  0  0
 14 15  1  0  0  0  0
 14 21  2  0  0  0  0
 15 16  1  0  0  0  0
 16 17  1  0  0  0  0
 17 18  1  0  0  0  0
 17 19  1  0  0  0  0
 17 20  1  0  0  0  0
M  END
>  <Name_Molregno>
416717

>  <Dopamine transporter>
5.47

>  <Norepinephrine transporter>
3.77

>  <Serotonin transporter>
3

$$$$
416720
  Marvin  02231216192D 0   1.00000     0.00000     0

 23 25  0  0  0  0  0  0  0  0999 V2000
    5.9334    2.5014    0.0000 Cl  0  0  0  0  0  0  0  0  0
    5.2190    2.0889    0.0000 C   0  0  0  0  0  0  0  0  0
    5.2190    1.2639    0.0000 C   0  0  0  0  0  0  0  0  0
    4.5045    0.8514    0.0000 C   0  0  0  0  0  0  0  0  0
    3.7900    1.2639    0.0000 C   0  0  0  0  0  0  0  0  0
    3.7900    2.0889    0.0000 C   0  0  0  0  0  0  0  0  0
    4.5045    2.5014    0.0000 C   0  0  0  0  0  0  0  0  0
    4.5045    3.3264    0.0000 Cl  0  0  0  0  0  0  0  0  0
    4.5045    0.0264    0.0000 C   0  0  0  0  0  0  0  0  0
    5.1719   -0.4585    0.0000 C   0  0  0  0  0  0  0  0  0
    4.9170   -1.2432    0.0000 C   0  0  0  0  0  0  0  0  0
    4.0920   -1.2432    0.0000 C   0  0  0  0  0  0  0  0  0
    3.8370   -0.4585    0.0000 C   0  0  0  0  0  0  0  0  0
    3.0524   -0.2036    0.0000 C   0  0  0  0  0  0  0  0  0
    2.4393   -0.7556    0.0000 O   0  0  0  0  0  0  0  0  0
    1.6547   -0.5007    0.0000 C   0  0  0  0  0  0  0  0  0
    1.0416   -1.0527    0.0000 C   0  0  0  0  0  0  0  0  0
    0.2570   -0.7978    0.0000 C   0  0  0  0  0  0  0  0  0
    0.0855    0.0092    0.0000 C   0  0  0  0  0  0  0  0  0
    0.6986    0.5612    0.0000 C   0  0  0  0  0  0  0  0  0
    1.4832    0.3063    0.0000 C   0  0  0  0  0  0  0  0  0
    2.0963    0.8583    0.0000 C   0  0  0  0  0  0  0  0  0
    2.8809    0.6034    0.0000 O   0  0  0  0  0  0  0  0  0
  1  2  1  0  0  0  0
  2  3  4  0  0  0  0
  2  7  4  0  0  0  0
  3  4  4  0  0  0  0
  4  5  4  0  0  0  0
  4  9  1  0  0  0  0
  5  6  4  0  0  0  0
  6  7  4  0  0  0  0
  7  8  1  0  0  0  0
  9 10  1  0  0  0  0
  9 13  2  0  0  0  0
 10 11  1  0  0  0  0
 11 12  1  0  0  0  0
 12 13  1  0  0  0  0
 13 14  1  0  0  0  0
 14 15  1  0  0  0  0
 14 23  2  0  0  0  0
 15 16  1  0  0  0  0
 16 17  4  0  0  0  0
 16 21  4  0  0  0  0
 17 18  4  0  0  0  0
 18 19  4  0  0  0  0
 19 20  4  0  0  0  0
 20 21  4  0  0  0  0
 21 22  1  0  0  0  0
M  END
>  <Name_Molregno>
416720

>  <Dopamine transporter>
6.66

>  <Norepinephrine transporter>
4.48

>  <Serotonin transporter>
3.3

$$$$
416721
  Marvin  02231216192D 0   1.00000     0.00000     0

 23 25  0  0  0  0  0  0  0  0999 V2000
    6.0918    2.5095    0.0000 Cl  0  0  0  0  0  0  0  0  0
    5.3774    2.0970    0.0000 C   0  0  0  0  0  0  0  0  0
    5.3774    1.2720    0.0000 C   0  0  0  0  0  0  0  0  0
    4.6629    0.8595    0.0000 C   0  0  0  0  0  0  0  0  0
    3.9484    1.2720    0.0000 C   0  0  0  0  0  0  0  0  0
    3.9484    2.0970    0.0000 C   0  0  0  0  0  0  0  0  0
    4.6629    2.5095    0.0000 C   0  0  0  0  0  0  0  0  0
    4.6629    3.3345    0.0000 Cl  0  0  0  0  0  0  0  0  0
    4.6629    0.0345    0.0000 C   0  0  0  0  0  0  0  0  0
    5.3303   -0.4504    0.0000 C   0  0  0  0  0  0  0  0  0
    5.0754   -1.2351    0.0000 C   0  0  0  0  0  0  0  0  0
    4.2504   -1.2351    0.0000 C   0  0  0  0  0  0  0  0  0
    3.9954   -0.4504    0.0000 C   0  0  0  0  0  0  0  0  0
    3.2108   -0.1955    0.0000 C   0  0  0  0  0  0  0  0  0
    2.5977   -0.7475    0.0000 O   0  0  0  0  0  0  0  0  0
    1.8131   -0.4926    0.0000 C   0  0  0  0  0  0  0  0  0
    1.2000   -1.0446    0.0000 C   0  0  0  0  0  0  0  0  0
    0.4154   -0.7897    0.0000 C   0  0  0  0  0  0  0  0  0
    0.2439    0.0173    0.0000 C   0  0  0  0  0  0  0  0  0
    0.8570    0.5693    0.0000 C   0  0  0  0  0  0  0  0  0
    1.6416    0.3144    0.0000 C   0  0  0  0  0  0  0  0  0
   -0.1977   -1.3417    0.0000 C   0  0  0  0  0  0  0  0  0
    3.0393    0.6115    0.0000 O   0  0  0  0  0  0  0  0  0
  1  2  1  0  0  0  0
  2  3  4  0  0  0  0
  2  7  4  0  0  0  0
  3  4  4  0  0  0  0
  4  5  4  0  0  0  0
  4  9  1  0  0  0  0
  5  6  4  0  0  0  0
  6  7  4  0  0  0  0
  7  8  1  0  0  0  0
  9 10  1  0  0  0  0
  9 13  2  0  0  0  0
 10 11  1  0  0  0  0
 11 12  1  0  0  0  0
 12 13  1  0  0  0  0
 13 14  1  0  0  0  0
 14 15  1  0  0  0  0
 14 23  2  0  0  0  0
 15 16  1  0  0  0  0
 16 17  4  0  0  0  0
 16 21  4  0  0  0  0
 17 18  4  0  0  0  0
 18 19  4  0  0  0  0
 18 22  1  0  0  0  0
 19 20  4  0  0  0  0
 20 21  4  0  0  0  0
M  END
>  <Name_Molregno>
416721

>  <Dopamine transporter>
7.22

>  <Norepinephrine transporter>
4

>  <Serotonin transporter>
3

$$$$
416722
  Marvin  02231216192D 0   1.00000     0.00000     0

 22 24  0  0  0  0  0  0  0  0999 V2000
    5.7420    1.4599    0.0000 Cl  0  0  0  0  0  0  0  0  0
    5.0275    1.0474    0.0000 C   0  0  0  0  0  0  0  0  0
    5.0275    0.2224    0.0000 C   0  0  0  0  0  0  0  0  0
    4.3130   -0.1901    0.0000 C   0  0  0  0  0  0  0  0  0
    3.5986    0.2224    0.0000 C   0  0  0  0  0  0  0  0  0
    3.5986    1.0474    0.0000 C   0  0  0  0  0  0  0  0  0
    4.3130    1.4599    0.0000 C   0  0  0  0  0  0  0  0  0
    4.3130    2.2849    0.0000 Cl  0  0  0  0  0  0  0  0  0
    4.3130   -1.0151    0.0000 C   0  0  0  0  0  0  0  0  0
    4.9805   -1.5000    0.0000 C   0  0  0  0  0  0  0  0  0
    4.7255   -2.2847    0.0000 C   0  0  0  0  0  0  0  0  0
    3.9005   -2.2847    0.0000 C   0  0  0  0  0  0  0  0  0
    3.6456   -1.5000    0.0000 C   0  0  0  0  0  0  0  0  0
    2.8610   -1.2451    0.0000 C   0  0  0  0  0  0  0  0  0
    2.6895   -0.4381    0.0000 O   0  0  0  0  0  0  0  0  0
    1.9048   -0.1832    0.0000 C   0  0  0  0  0  0  0  0  0
    1.7333    0.6238    0.0000 C   0  0  0  0  0  0  0  0  0
    0.9796    0.9593    0.0000 S   0  0  0  0  0  0  0  0  0
    1.0659    1.7798    0.0000 C   0  0  0  0  0  0  0  0  0
    1.8728    1.9514    0.0000 C   0  0  0  0  0  0  0  0  0
    2.2853    1.2369    0.0000 C   0  0  0  0  0  0  0  0  0
    2.2479   -1.7971    0.0000 O   0  0  0  0  0  0  0  0  0
  1  2  1  0  0  0  0
  2  3  4  0  0  0  0
  2  7  4  0  0  0  0
  3  4  4  0  0  0  0
  4  5  4  0  0  0  0
  4  9  1  0  0  0  0
  5  6  4  0  0  0  0
  6  7  4  0  0  0  0
  7  8  1  0  0  0  0
  9 10  1  0  0  0  0
  9 13  2  0  0  0  0
 10 11  1  0  0  0  0
 11 12  1  0  0  0  0
 12 13  1  0  0  0  0
 13 14  1  0  0  0  0
 14 15  1  0  0  0  0
 14 22  2  0  0  0  0
 15 16  1  0  0  0  0
 16 17  1  0  0  0  0
 17 18  4  0  0  0  0
 17 21  4  0  0  0  0
 18 19  4  0  0  0  0
 19 20  4  0  0  0  0
 20 21  4  0  0  0  0
M  END
>  <Name_Molregno>
416722

>  <Dopamine transporter>
6.4

>  <Norepinephrine transporter>
4.38

>  <Serotonin transporter>
3.04

$$$$
416723
  Marvin  02231216192D 0   1.00000     0.00000     0

 22 24  0  0  0  0  0  0  0  0999 V2000
    5.7420    1.4599    0.0000 Cl  0  0  0  0  0  0  0  0  0
    5.0275    1.0474    0.0000 C   0  0  0  0  0  0  0  0  0
    5.0275    0.2224    0.0000 C   0  0  0  0  0  0  0  0  0
    4.3130   -0.1901    0.0000 C   0  0  0  0  0  0  0  0  0
    3.5986    0.2224    0.0000 C   0  0  0  0  0  0  0  0  0
    3.5986    1.0474    0.0000 C   0  0  0  0  0  0  0  0  0
    4.3130    1.4599    0.0000 C   0  0  0  0  0  0  0  0  0
    4.3130    2.2849    0.0000 Cl  0  0  0  0  0  0  0  0  0
    4.3130   -1.0151    0.0000 C   0  0  0  0  0  0  0  0  0
    4.9805   -1.5000    0.0000 C   0  0  0  0  0  0  0  0  0
    4.7255   -2.2847    0.0000 C   0  0  0  0  0  0  0  0  0
    3.9005   -2.2847    0.0000 C   0  0  0  0  0  0  0  0  0
    3.6456   -1.5000    0.0000 C   0  0  0  0  0  0  0  0  0
    2.8610   -1.2451    0.0000 C   0  0  0  0  0  0  0  0  0
    2.6895   -0.4381    0.0000 O   0  0  0  0  0  0  0  0  0
    1.9048   -0.1832    0.0000 C   0  0  0  0  0  0  0  0  0
    1.7333    0.6238    0.0000 C   0  0  0  0  0  0  0  0  0
    0.9796    0.9593    0.0000 O   0  0  0  0  0  0  0  0  0
    1.0659    1.7798    0.0000 C   0  0  0  0  0  0  0  0  0
    1.8728    1.9514    0.0000 C   0  0  0  0  0  0  0  0  0
    2.2853    1.2369    0.0000 C   0  0  0  0  0  0  0  0  0
    2.2479   -1.7971    0.0000 O   0  0  0  0  0  0  0  0  0
  1  2  1  0  0  0  0
  2  3  4  0  0  0  0
  2  7  4  0  0  0  0
  3  4  4  0  0  0  0
  4  5  4  0  0  0  0
  4  9  1  0  0  0  0
  5  6  4  0  0  0  0
  6  7  4  0  0  0  0
  7  8  1  0  0  0  0
  9 10  1  0  0  0  0
  9 13  2  0  0  0  0
 10 11  1  0  0  0  0
 11 12  1  0  0  0  0
 12 13  1  0  0  0  0
 13 14  1  0  0  0  0
 14 15  1  0  0  0  0
 14 22  2  0  0  0  0
 15 16  1  0  0  0  0
 16 17  1  0  0  0  0
 17 18  4  0  0  0  0
 17 21  4  0  0  0  0
 18 19  4  0  0  0  0
 19 20  4  0  0  0  0
 20 21  4  0  0  0  0
M  END
>  <Name_Molregno>
416723

>  <Dopamine transporter>
5.82

>  <Norepinephrine transporter>
4.21

>  <Serotonin transporter>
4.62

$$$$
419025
  Marvin  02231216192D 0   1.00000     0.00000     0

 21 22  0  0  0  0  0  0  0  0999 V2000
   -0.3943    0.0402    0.0000 S   0  0  0  0  0  0  0  0  0
   -0.3943   -0.7848    0.0000 C   0  0  0  0  0  0  0  0  0
    0.3202   -1.1973    0.0000 C   0  0  0  0  0  0  0  0  0
    0.3202   -2.0223    0.0000 C   0  0  0  0  0  0  0  0  0
   -0.3943   -2.4348    0.0000 C   0  0  0  0  0  0  0  0  0
   -0.3943   -3.2598    0.0000 F   0  0  0  0  0  0  0  0  0
   -1.1088   -2.0223    0.0000 C   0  0  0  0  0  0  0  0  0
   -1.1088   -1.1973    0.0000 C   0  0  0  0  0  0  0  0  0
   -1.8232   -0.7848    0.0000 C   0  0  0  0  0  0  0  0  0
   -2.5377   -1.1973    0.0000 N   0  0  0  0  0  0  0  0  0
   -2.5377   -2.0223    0.0000 C   0  0  0  0  0  0  0  0  0
   -3.2522   -0.7848    0.0000 C   0  0  0  0  0  0  0  0  0
    0.3202    0.4527    0.0000 C   0  0  0  0  0  0  0  0  0
    0.3202    1.2777    0.0000 C   0  0  0  0  0  0  0  0  0
    1.0346    1.6902    0.0000 C   0  0  0  0  0  0  0  0  0
    1.7491    1.2777    0.0000 C   0  0  0  0  0  0  0  0  0
    1.7491    0.4527    0.0000 C   0  0  0  0  0  0  0  0  0
    1.0346    0.0402    0.0000 C   0  0  0  0  0  0  0  0  0
    1.0346   -0.7848    0.0000 N   0  0  0  0  0  0  0  0  0
    2.4636    1.6902    0.0000 C   0  0  0  0  0  0  0  0  0
    2.4636    2.5152    0.0000 O   0  0  0  0  0  0  0  0  0
  1  2  1  0  0  0  0
  1 13  1  0  0  0  0
  2  3  4  0  0  0  0
  2  8  4  0  0  0  0
  3  4  4  0  0  0  0
  4  5  4  0  0  0  0
  5  6  1  0  0  0  0
  5  7  4  0  0  0  0
  7  8  4  0  0  0  0
  8  9  1  0  0  0  0
  9 10  1  0  0  0  0
 10 11  1  0  0  0  0
 10 12  1  0  0  0  0
 13 14  4  0  0  0  0
 13 18  4  0  0  0  0
 14 15  4  0  0  0  0
 15 16  4  0  0  0  0
 16 17  4  0  0  0  0
 16 20  1  0  0  0  0
 17 18  4  0  0  0  0
 18 19  1  0  0  0  0
 20 21  1  0  0  0  0
M  END
>  <Name_Molregno>
419025

>  <Dopamine transporter>
5.7

>  <Norepinephrine transporter>
6.21

>  <Serotonin transporter>
8.9

$$$$
419028
  Marvin  02231216192D 0   1.00000     0.00000     0

 21 22  0  0  0  0  0  0  0  0999 V2000
    2.0229    5.1685    0.0000 Br  0  0  0  0  0  0  0  0  0
    2.0229    4.3435    0.0000 C   0  0  0  0  0  0  0  0  0
    2.7373    3.9310    0.0000 C   0  0  0  0  0  0  0  0  0
    2.7373    3.1060    0.0000 C   0  0  0  0  0  0  0  0  0
    3.4518    2.6935    0.0000 C   0  0  0  0  0  0  0  0  0
    4.1663    3.1060    0.0000 N   0  0  0  0  0  0  0  0  0
    4.1663    3.9310    0.0000 C   0  0  0  0  0  0  0  0  0
    4.8808    2.6935    0.0000 C   0  0  0  0  0  0  0  0  0
    2.0229    2.6935    0.0000 C   0  0  0  0  0  0  0  0  0
    2.0229    1.8685    0.0000 S   0  0  0  0  0  0  0  0  0
    1.3084    1.4560    0.0000 C   0  0  0  0  0  0  0  0  0
    1.3084    0.6310    0.0000 C   0  0  0  0  0  0  0  0  0
    0.5939    0.2185    0.0000 C   0  0  0  0  0  0  0  0  0
   -0.1205    0.6310    0.0000 C   0  0  0  0  0  0  0  0  0
   -0.1205    1.4560    0.0000 C   0  0  0  0  0  0  0  0  0
    0.5939    1.8685    0.0000 C   0  0  0  0  0  0  0  0  0
    0.5939    2.6935    0.0000 N   0  0  0  0  0  0  0  0  0
   -0.8350    0.2185    0.0000 C   0  0  0  0  0  0  0  0  0
   -0.8350   -0.6065    0.0000 O   0  0  0  0  0  0  0  0  0
    1.3084    3.1060    0.0000 C   0  0  0  0  0  0  0  0  0
    1.3084    3.9310    0.0000 C   0  0  0  0  0  0  0  0  0
  1  2  1  0  0  0  0
  2  3  4  0  0  0  0
  2 21  4  0  0  0  0
  3  4  4  0  0  0  0
  4  5  1  0  0  0  0
  4  9  4  0  0  0  0
  5  6  1  0  0  0  0
  6  7  1  0  0  0  0
  6  8  1  0  0  0  0
  9 10  1  0  0  0  0
  9 20  4  0  0  0  0
 10 11  1  0  0  0  0
 11 12  4  0  0  0  0
 11 16  4  0  0  0  0
 12 13  4  0  0  0  0
 13 14  4  0  0  0  0
 14 15  4  0  0  0  0
 14 18  1  0  0  0  0
 15 16  4  0  0  0  0
 16 17  1  0  0  0  0
 18 19  1  0  0  0  0
 20 21  4  0  0  0  0
M  END
>  <Name_Molregno>
419028

>  <Dopamine transporter>
6.66

>  <Norepinephrine transporter>
6.14

>  <Serotonin transporter>
9.54

$$$$
419030
  Marvin  02231216192D 0   1.00000     0.00000     0

 21 22  0  0  0  0  0  0  0  0999 V2000
    2.0229    5.1685    0.0000 I   0  0  0  0  0  0  0  0  0
    2.0229    4.3435    0.0000 C   0  0  0  0  0  0  0  0  0
    2.7373    3.9310    0.0000 C   0  0  0  0  0  0  0  0  0
    2.7373    3.1060    0.0000 C   0  0  0  0  0  0  0  0  0
    3.4518    2.6935    0.0000 C   0  0  0  0  0  0  0  0  0
    4.1663    3.1060    0.0000 N   0  0  0  0  0  0  0  0  0
    4.1663    3.9310    0.0000 C   0  0  0  0  0  0  0  0  0
    4.8808    2.6935    0.0000 C   0  0  0  0  0  0  0  0  0
    2.0229    2.6935    0.0000 C   0  0  0  0  0  0  0  0  0
    2.0229    1.8685    0.0000 S   0  0  0  0  0  0  0  0  0
    1.3084    1.4560    0.0000 C   0  0  0  0  0  0  0  0  0
    1.3084    0.6310    0.0000 C   0  0  0  0  0  0  0  0  0
    0.5939    0.2185    0.0000 C   0  0  0  0  0  0  0  0  0
   -0.1205    0.6310    0.0000 C   0  0  0  0  0  0  0  0  0
   -0.1205    1.4560    0.0000 C   0  0  0  0  0  0  0  0  0
    0.5939    1.8685    0.0000 C   0  0  0  0  0  0  0  0  0
    0.5939    2.6935    0.0000 N   0  0  0  0  0  0  0  0  0
   -0.8350    0.2185    0.0000 C   0  0  0  0  0  0  0  0  0
   -0.8350   -0.6065    0.0000 O   0  0  0  0  0  0  0  0  0
    1.3084    3.1060    0.0000 C   0  0  0  0  0  0  0  0  0
    1.3084    3.9310    0.0000 C   0  0  0  0  0  0  0  0  0
  1  2  1  0  0  0  0
  2  3  4  0  0  0  0
  2 21  4  0  0  0  0
  3  4  4  0  0  0  0
  4  5  1  0  0  0  0
  4  9  4  0  0  0  0
  5  6  1  0  0  0  0
  6  7  1  0  0  0  0
  6  8  1  0  0  0  0
  9 10  1  0  0  0  0
  9 20  4  0  0  0  0
 10 11  1  0  0  0  0
 11 12  4  0  0  0  0
 11 16  4  0  0  0  0
 12 13  4  0  0  0  0
 13 14  4  0  0  0  0
 14 15  4  0  0  0  0
 14 18  1  0  0  0  0
 15 16  4  0  0  0  0
 16 17  1  0  0  0  0
 18 19  1  0  0  0  0
 20 21  4  0  0  0  0
M  END
>  <Name_Molregno>
419030

>  <Dopamine transporter>
5.7

>  <Norepinephrine transporter>
6.33

>  <Serotonin transporter>
9.51

$$$$
427081
  Marvin  02231216192D 0   1.00000     0.00000     0

 21 22  0  0  0  0  0  0  0  0999 V2000
    2.6140    2.6556    0.0000 Cl  0  0  0  0  0  0  0  0  0
    2.6140    1.8306    0.0000 C   0  0  0  0  0  0  0  0  0
    3.3284    1.4181    0.0000 C   0  0  0  0  0  0  0  0  0
    3.3284    0.5931    0.0000 C   0  0  0  0  0  0  0  0  0
    4.0429    0.1806    0.0000 C   0  0  0  0  0  0  0  0  0
    4.7574    0.5931    0.0000 C   0  0  0  0  0  0  0  0  0
    2.6140    0.1806    0.0000 C   0  0  0  0  0  0  0  0  0
    2.6140   -0.6444    0.0000 O   0  0  0  0  0  0  0  0  0
    3.3284   -1.0569    0.0000 C   0  0  0  0  0  0  0  0  0
    4.0429   -0.6444    0.0000 C   0  0  0  0  0  0  0  0  0
    4.7574   -1.0569    0.0000 C   0  0  0  0  0  0  0  0  0
    4.7574   -1.8819    0.0000 N   0  0  0  0  0  0  0  0  0
    4.0429   -2.2944    0.0000 C   0  0  0  0  0  0  0  0  0
    3.3284   -1.8819    0.0000 C   0  0  0  0  0  0  0  0  0
    2.6140   -2.2944    0.0000 C   0  0  0  0  0  0  0  0  0
    1.8995   -1.8819    0.0000 N   0  0  0  0  0  0  0  0  0
    1.1850   -2.2944    0.0000 C   0  0  0  0  0  0  0  0  0
    1.8995   -1.0569    0.0000 C   0  0  0  0  0  0  0  0  0
    5.4718   -0.6444    0.0000 C   0  0  0  0  0  0  0  0  0
    1.8995    0.5931    0.0000 C   0  0  0  0  0  0  0  0  0
    1.8995    1.4181    0.0000 C   0  0  0  0  0  0  0  0  0
  1  2  1  0  0  0  0
  2  3  4  0  0  0  0
  2 21  4  0  0  0  0
  3  4  4  0  0  0  0
  4  5  1  0  0  0  0
  4  7  4  0  0  0  0
  5  6  1  0  0  0  0
  7  8  1  0  0  0  0
  7 20  4  0  0  0  0
  8  9  1  0  0  0  0
  9 10  4  0  0  0  0
  9 14  4  0  0  0  0
 10 11  4  0  0  0  0
 11 12  4  0  0  0  0
 11 19  1  0  0  0  0
 12 13  4  0  0  0  0
 13 14  4  0  0  0  0
 14 15  1  0  0  0  0
 15 16  1  0  0  0  0
 16 17  1  0  0  0  0
 16 18  1  0  0  0  0
 20 21  4  0  0  0  0
M  END
>  <Name_Molregno>
427081

>  <Norepinephrine transporter>
7.66

>  <Serotonin transporter>
7.89

$$$$
427083
  Marvin  02231216192D 0   1.00000     0.00000     0

 20 21  0  0  0  0  0  0  0  0999 V2000
    2.4122    3.3445    0.0000 Cl  0  0  0  0  0  0  0  0  0
    2.4122    2.5195    0.0000 C   0  0  0  0  0  0  0  0  0
    3.1267    2.1070    0.0000 C   0  0  0  0  0  0  0  0  0
    3.1267    1.2820    0.0000 C   0  0  0  0  0  0  0  0  0
    3.8411    0.8695    0.0000 C   0  0  0  0  0  0  0  0  0
    4.5556    1.2820    0.0000 C   0  0  0  0  0  0  0  0  0
    2.4122    0.8695    0.0000 C   0  0  0  0  0  0  0  0  0
    2.4122    0.0445    0.0000 O   0  0  0  0  0  0  0  0  0
    3.1267   -0.3680    0.0000 C   0  0  0  0  0  0  0  0  0
    3.8411    0.0445    0.0000 C   0  0  0  0  0  0  0  0  0
    4.5556   -0.3680    0.0000 C   0  0  0  0  0  0  0  0  0
    4.5556   -1.1930    0.0000 N   0  0  0  0  0  0  0  0  0
    3.8411   -1.6055    0.0000 C   0  0  0  0  0  0  0  0  0
    3.1267   -1.1930    0.0000 C   0  0  0  0  0  0  0  0  0
    2.4122   -1.6055    0.0000 C   0  0  0  0  0  0  0  0  0
    1.6977   -1.1930    0.0000 N   0  0  0  0  0  0  0  0  0
    0.9832   -1.6055    0.0000 C   0  0  0  0  0  0  0  0  0
    5.2701    0.0445    0.0000 C   0  0  0  0  0  0  0  0  0
    1.6977    1.2820    0.0000 C   0  0  0  0  0  0  0  0  0
    1.6977    2.1070    0.0000 C   0  0  0  0  0  0  0  0  0
  1  2  1  0  0  0  0
  2  3  4  0  0  0  0
  2 20  4  0  0  0  0
  3  4  4  0  0  0  0
  4  5  1  0  0  0  0
  4  7  4  0  0  0  0
  5  6  1  0  0  0  0
  7  8  1  0  0  0  0
  7 19  4  0  0  0  0
  8  9  1  0  0  0  0
  9 10  4  0  0  0  0
  9 14  4  0  0  0  0
 10 11  4  0  0  0  0
 11 12  4  0  0  0  0
 11 18  1  0  0  0  0
 12 13  4  0  0  0  0
 13 14  4  0  0  0  0
 14 15  1  0  0  0  0
 15 16  1  0  0  0  0
 16 17  1  0  0  0  0
 19 20  4  0  0  0  0
M  END
>  <Name_Molregno>
427083

>  <Dopamine transporter>
5.36

>  <Norepinephrine transporter>
7.13

>  <Serotonin transporter>
7.74

$$$$
427175
  Marvin  02231216192D 0   1.00000     0.00000     0

 23 25  0  0  1  0  0  0  0  0999 V2000
    0.0360    2.5781    0.0000 O   0  0  0  0  0  0  0  0  0
    0.7505    2.9906    0.0000 C   0  0  0  0  0  0  0  0  0
    0.7505    3.8156    0.0000 C   0  0  0  0  0  0  0  0  0
    0.0360    1.7531    0.0000 C   0  0  0  0  0  0  0  0  0
    0.7505    1.3406    0.0000 C   0  0  0  0  0  0  0  0  0
    0.7505    0.5156    0.0000 C   0  0  0  0  0  0  0  0  0
    0.0360    0.1031    0.0000 C   0  0  0  0  0  0  0  0  0
   -0.6784    0.5156    0.0000 C   0  0  0  0  0  0  0  0  0
   -0.6784    1.3406    0.0000 C   0  0  0  0  0  0  0  0  0
   -1.3929    1.7531    0.0000 C   0  0  0  0  0  0  0  0  0
   -2.1074    1.3406    0.0000 C   0  0  0  0  0  0  0  0  0
   -2.8219    1.7531    0.0000 N   0  0  0  0  0  0  0  0  0
   -3.5363    1.3406    0.0000 C   0  0  0  0  0  0  0  0  0
   -4.2508    1.7531    0.0000 C   0  0  0  0  0  0  0  0  0
   -4.2508    2.5781    0.0000 N   0  0  0  0  0  0  0  0  0
   -3.5363    2.9906    0.0000 C   0  0  0  0  0  0  0  0  0
   -2.8219    2.5781    0.0000 C   0  0  0  0  0  0  0  0  0
   -2.1074    0.5156    0.0000 C   0  0  0  0  0  0  0  0  0
   -1.3929    0.1031    0.0000 C   0  0  0  0  0  0  0  0  0
   -1.3929   -0.7219    0.0000 C   0  0  0  0  0  0  0  0  0
   -2.1074   -1.1344    0.0000 C   0  0  0  0  0  0  0  0  0
   -2.8219   -0.7219    0.0000 C   0  0  0  0  0  0  0  0  0
   -2.8219    0.1031    0.0000 C   0  0  0  0  0  0  0  0  0
  1  2  1  0  0  0  0
  1  4  1  0  0  0  0
  2  3  1  0  0  0  0
  4  5  4  0  0  0  0
  4  9  4  0  0  0  0
  5  6  4  0  0  0  0
  6  7  4  0  0  0  0
  7  8  4  0  0  0  0
  8  9  4  0  0  0  0
  9 10  1  0  0  0  0
 10 11  1  0  0  0  0
 11 12  1  0  0  0  0
 11 18  1  0  0  0  0
 12 13  1  0  0  0  0
 12 17  1  0  0  0  0
 13 14  1  0  0  0  0
 14 15  1  0  0  0  0
 15 16  1  0  0  0  0
 16 17  1  0  0  0  0
 18 19  4  0  0  0  0
 18 23  4  0  0  0  0
 19 20  4  0  0  0  0
 20 21  4  0  0  0  0
 21 22  4  0  0  0  0
 22 23  4  0  0  0  0
M  END
>  <Name_Molregno>
427175

>  <Dopamine transporter>
5.58

>  <Norepinephrine transporter>
7.92

>  <Serotonin transporter>
8

$$$$
427851
  Marvin  02231216192D 0   1.00000     0.00000     0

 23 25  0  0  1  0  0  0  0  0999 V2000
    2.2578    4.1005    0.0000 F   0  0  0  0  0  0  0  0  0
    2.2578    3.2755    0.0000 C   0  0  0  0  0  0  0  0  0
    1.5434    2.8630    0.0000 C   0  0  0  0  0  0  0  0  0
    1.5434    2.0380    0.0000 C   0  0  0  0  0  0  0  0  0
    0.8289    1.6255    0.0000 O   0  0  0  0  0  0  0  0  0
    0.8289    0.8005    0.0000 C   0  0  0  0  0  0  0  0  0
    2.2578    1.6255    0.0000 C   0  0  0  0  0  0  0  0  0
    2.2578    0.8005    0.0000 O   0  0  0  0  0  0  0  0  0
    2.9723    0.3880    0.0000 C   0  0  0  0  0  0  0  0  0
    2.9723   -0.4370    0.0000 C   0  0  0  0  0  0  0  0  0
    3.6868   -0.8495    0.0000 O   0  0  0  0  0  0  0  0  0
    3.6868   -1.6745    0.0000 C   0  0  0  0  0  0  0  0  0
    2.9723   -2.0870    0.0000 C   0  0  0  0  0  0  0  0  0
    2.2578   -1.6745    0.0000 N   0  0  0  0  0  0  0  0  0
    2.2578   -0.8495    0.0000 C   0  0  0  0  0  0  0  0  0
    3.6868    0.8005    0.0000 C   0  0  0  0  0  0  0  0  0
    3.6868    1.6255    0.0000 C   0  0  0  0  0  0  0  0  0
    4.4013    2.0380    0.0000 C   0  0  0  0  0  0  0  0  0
    5.1157    1.6255    0.0000 C   0  0  0  0  0  0  0  0  0
    5.1157    0.8005    0.0000 C   0  0  0  0  0  0  0  0  0
    4.4013    0.3880    0.0000 C   0  0  0  0  0  0  0  0  0
    2.9723    2.0380    0.0000 C   0  0  0  0  0  0  0  0  0
    2.9723    2.8630    0.0000 C   0  0  0  0  0  0  0  0  0
  1  2  1  0  0  0  0
  2  3  4  0  0  0  0
  2 23  4  0  0  0  0
  3  4  4  0  0  0  0
  4  5  1  0  0  0  0
  4  7  4  0  0  0  0
  5  6  1  0  0  0  0
  7  8  1  0  0  0  0
  7 22  4  0  0  0  0
  8  9  1  0  0  0  0
  9 10  1  0  0  0  0
  9 16  1  0  0  0  0
 10 11  1  0  0  0  0
 10 15  1  0  0  0  0
 11 12  1  0  0  0  0
 12 13  1  0  0  0  0
 13 14  1  0  0  0  0
 14 15  1  0  0  0  0
 16 17  4  0  0  0  0
 16 21  4  0  0  0  0
 17 18  4  0  0  0  0
 18 19  4  0  0  0  0
 19 20  4  0  0  0  0
 20 21  4  0  0  0  0
 22 23  4  0  0  0  0
M  END
>  <Name_Molregno>
427851

>  <Dopamine transporter>
5.51

>  <Norepinephrine transporter>
7.22

>  <Serotonin transporter>
6.89

$$$$
427891
  Marvin  02231216192D 0   1.00000     0.00000     0

 23 25  0  0  1  0  0  0  0  0999 V2000
    2.2578    4.1005    0.0000 Cl  0  0  0  0  0  0  0  0  0
    2.2578    3.2755    0.0000 C   0  0  0  0  0  0  0  0  0
    1.5434    2.8630    0.0000 C   0  0  0  0  0  0  0  0  0
    1.5434    2.0380    0.0000 C   0  0  0  0  0  0  0  0  0
    0.8289    1.6255    0.0000 O   0  0  0  0  0  0  0  0  0
    0.8289    0.8005    0.0000 C   0  0  0  0  0  0  0  0  0
    2.2578    1.6255    0.0000 C   0  0  0  0  0  0  0  0  0
    2.2578    0.8005    0.0000 O   0  0  0  0  0  0  0  0  0
    2.9723    0.3880    0.0000 C   0  0  0  0  0  0  0  0  0
    2.9723   -0.4370    0.0000 C   0  0  0  0  0  0  0  0  0
    3.6868   -0.8495    0.0000 O   0  0  0  0  0  0  0  0  0
    3.6868   -1.6745    0.0000 C   0  0  0  0  0  0  0  0  0
    2.9723   -2.0870    0.0000 C   0  0  0  0  0  0  0  0  0
    2.2578   -1.6745    0.0000 N   0  0  0  0  0  0  0  0  0
    2.2578   -0.8495    0.0000 C   0  0  0  0  0  0  0  0  0
    3.6868    0.8005    0.0000 C   0  0  0  0  0  0  0  0  0
    3.6868    1.6255    0.0000 C   0  0  0  0  0  0  0  0  0
    4.4013    2.0380    0.0000 C   0  0  0  0  0  0  0  0  0
    5.1157    1.6255    0.0000 C   0  0  0  0  0  0  0  0  0
    5.1157    0.8005    0.0000 C   0  0  0  0  0  0  0  0  0
    4.4013    0.3880    0.0000 C   0  0  0  0  0  0  0  0  0
    2.9723    2.0380    0.0000 C   0  0  0  0  0  0  0  0  0
    2.9723    2.8630    0.0000 C   0  0  0  0  0  0  0  0  0
  1  2  1  0  0  0  0
  2  3  4  0  0  0  0
  2 23  4  0  0  0  0
  3  4  4  0  0  0  0
  4  5  1  0  0  0  0
  4  7  4  0  0  0  0
  5  6  1  0  0  0  0
  7  8  1  0  0  0  0
  7 22  4  0  0  0  0
  8  9  1  0  0  0  0
  9 10  1  0  0  0  0
  9 16  1  0  0  0  0
 10 11  1  0  0  0  0
 10 15  1  0  0  0  0
 11 12  1  0  0  0  0
 12 13  1  0  0  0  0
 13 14  1  0  0  0  0
 14 15  1  0  0  0  0
 16 17  4  0  0  0  0
 16 21  4  0  0  0  0
 17 18  4  0  0  0  0
 18 19  4  0  0  0  0
 19 20  4  0  0  0  0
 20 21  4  0  0  0  0
 22 23  4  0  0  0  0
M  END
>  <Name_Molregno>
427891

>  <Dopamine transporter>
5.63

>  <Norepinephrine transporter>
7.1

>  <Serotonin transporter>
7.39

$$$$
428065
  Marvin  02231216192D 0   1.00000     0.00000     0

 24 26  0  0  1  0  0  0  0  0999 V2000
    2.3395    4.1393    0.0000 Cl  0  0  0  0  0  0  0  0  0
    2.3395    3.3143    0.0000 C   0  0  0  0  0  0  0  0  0
    1.6250    2.9018    0.0000 C   0  0  0  0  0  0  0  0  0
    1.6250    2.0768    0.0000 C   0  0  0  0  0  0  0  0  0
    0.9105    1.6643    0.0000 O   0  0  0  0  0  0  0  0  0
    0.1961    2.0768    0.0000 C   0  0  0  0  0  0  0  0  0
   -0.5184    1.6643    0.0000 C   0  0  0  0  0  0  0  0  0
    2.3395    1.6643    0.0000 C   0  0  0  0  0  0  0  0  0
    2.3395    0.8393    0.0000 O   0  0  0  0  0  0  0  0  0
    3.0540    0.4268    0.0000 C   0  0  0  0  0  0  0  0  0
    3.0540   -0.3982    0.0000 C   0  0  0  0  0  0  0  0  0
    3.7684   -0.8107    0.0000 O   0  0  0  0  0  0  0  0  0
    3.7684   -1.6357    0.0000 C   0  0  0  0  0  0  0  0  0
    3.0540   -2.0482    0.0000 C   0  0  0  0  0  0  0  0  0
    2.3395   -1.6357    0.0000 N   0  0  0  0  0  0  0  0  0
    2.3395   -0.8107    0.0000 C   0  0  0  0  0  0  0  0  0
    3.7684    0.8393    0.0000 C   0  0  0  0  0  0  0  0  0
    3.7684    1.6643    0.0000 C   0  0  0  0  0  0  0  0  0
    4.4829    2.0768    0.0000 C   0  0  0  0  0  0  0  0  0
    5.1974    1.6643    0.0000 C   0  0  0  0  0  0  0  0  0
    5.1974    0.8393    0.0000 C   0  0  0  0  0  0  0  0  0
    4.4829    0.4268    0.0000 C   0  0  0  0  0  0  0  0  0
    3.0540    2.0768    0.0000 C   0  0  0  0  0  0  0  0  0
    3.0540    2.9018    0.0000 C   0  0  0  0  0  0  0  0  0
  1  2  1  0  0  0  0
  2  3  4  0  0  0  0
  2 24  4  0  0  0  0
  3  4  4  0  0  0  0
  4  5  1  0  0  0  0
  4  8  4  0  0  0  0
  5  6  1  0  0  0  0
  6  7  1  0  0  0  0
  8  9  1  0  0  0  0
  8 23  4  0  0  0  0
  9 10  1  0  0  0  0
 10 11  1  0  0  0  0
 10 17  1  0  0  0  0
 11 12  1  0  0  0  0
 11 16  1  0  0  0  0
 12 13  1  0  0  0  0
 13 14  1  0  0  0  0
 14 15  1  0  0  0  0
 15 16  1  0  0  0  0
 17 18  4  0  0  0  0
 17 22  4  0  0  0  0
 18 19  4  0  0  0  0
 19 20  4  0  0  0  0
 20 21  4  0  0  0  0
 21 22  4  0  0  0  0
 23 24  4  0  0  0  0
M  END
>  <Name_Molregno>
428065

>  <Dopamine transporter>
5.8

>  <Norepinephrine transporter>
7.12

>  <Serotonin transporter>
6.94

$$$$
428112
  Marvin  02231216192D 0   1.00000     0.00000     0

 24 26  0  0  1  0  0  0  0  0999 V2000
    3.8582    3.1610    0.0000 Cl  0  0  0  0  0  0  0  0  0
    3.8582    2.3360    0.0000 C   0  0  0  0  0  0  0  0  0
    4.5727    1.9235    0.0000 C   0  0  0  0  0  0  0  0  0
    4.5727    1.0985    0.0000 C   0  0  0  0  0  0  0  0  0
    3.8582    0.6860    0.0000 C   0  0  0  0  0  0  0  0  0
    3.1438    1.0985    0.0000 C   0  0  0  0  0  0  0  0  0
    2.4293    0.6860    0.0000 O   0  0  0  0  0  0  0  0  0
    2.4293   -0.1390    0.0000 C   0  0  0  0  0  0  0  0  0
    1.7148   -0.5515    0.0000 C   0  0  0  0  0  0  0  0  0
    1.7148   -1.3765    0.0000 O   0  0  0  0  0  0  0  0  0
    1.0003   -1.7890    0.0000 C   0  0  0  0  0  0  0  0  0
    0.2859   -1.3765    0.0000 C   0  0  0  0  0  0  0  0  0
    0.2859   -0.5515    0.0000 N   0  0  0  0  0  0  0  0  0
    1.0003   -0.1390    0.0000 C   0  0  0  0  0  0  0  0  0
    3.1438   -0.5515    0.0000 C   0  0  0  0  0  0  0  0  0
    3.8582   -0.1390    0.0000 C   0  0  0  0  0  0  0  0  0
    4.5727   -0.5515    0.0000 C   0  0  0  0  0  0  0  0  0
    4.5727   -1.3765    0.0000 C   0  0  0  0  0  0  0  0  0
    3.8582   -1.7890    0.0000 C   0  0  0  0  0  0  0  0  0
    3.1438   -1.3765    0.0000 C   0  0  0  0  0  0  0  0  0
    3.1438    1.9235    0.0000 C   0  0  0  0  0  0  0  0  0
    2.4293    2.3360    0.0000 O   0  0  0  0  0  0  0  0  0
    2.4293    3.1610    0.0000 C   0  0  0  0  0  0  0  0  0
    1.7148    3.5735    0.0000 C   0  0  0  0  0  0  0  0  0
  1  2  1  0  0  0  0
  2  3  4  0  0  0  0
  2 21  4  0  0  0  0
  3  4  4  0  0  0  0
  4  5  4  0  0  0  0
  5  6  4  0  0  0  0
  6  7  1  0  0  0  0
  6 21  4  0  0  0  0
  7  8  1  0  0  0  0
  8  9  1  0  0  0  0
  8 15  1  0  0  0  0
  9 10  1  0  0  0  0
  9 14  1  0  0  0  0
 10 11  1  0  0  0  0
 11 12  1  0  0  0  0
 12 13  1  0  0  0  0
 13 14  1  0  0  0  0
 15 16  4  0  0  0  0
 15 20  4  0  0  0  0
 16 17  4  0  0  0  0
 17 18  4  0  0  0  0
 18 19  4  0  0  0  0
 19 20  4  0  0  0  0
 21 22  1  0  0  0  0
 22 23  1  0  0  0  0
 23 24  1  0  0  0  0
M  END
>  <Name_Molregno>
428112

>  <Dopamine transporter>
5

>  <Norepinephrine transporter>
6.19

>  <Serotonin transporter>
6.54

$$$$
428326
  Marvin  02231216192D 0   1.00000     0.00000     0

 24 26  0  0  1  0  0  0  0  0999 V2000
    2.4155    2.5051    0.0000 Cl  0  0  0  0  0  0  0  0  0
    2.4155    1.6801    0.0000 C   0  0  0  0  0  0  0  0  0
    1.7010    1.2676    0.0000 C   0  0  0  0  0  0  0  0  0
    1.7010    0.4426    0.0000 C   0  0  0  0  0  0  0  0  0
    0.9866    0.0301    0.0000 O   0  0  0  0  0  0  0  0  0
    0.9866   -0.7949    0.0000 C   0  0  0  0  0  0  0  0  0
    2.4155    0.0301    0.0000 C   0  0  0  0  0  0  0  0  0
    2.4155   -0.7949    0.0000 O   0  0  0  0  0  0  0  0  0
    3.1300   -1.2074    0.0000 C   0  0  0  0  0  0  0  0  0
    3.1300   -2.0324    0.0000 C   0  0  0  0  0  0  0  0  0
    3.8444   -2.4449    0.0000 O   0  0  0  0  0  0  0  0  0
    3.8444   -3.2699    0.0000 C   0  0  0  0  0  0  0  0  0
    3.1300   -3.6824    0.0000 C   0  0  0  0  0  0  0  0  0
    2.4155   -3.2699    0.0000 N   0  0  0  0  0  0  0  0  0
    2.4155   -2.4449    0.0000 C   0  0  0  0  0  0  0  0  0
    3.8444   -0.7949    0.0000 C   0  0  0  0  0  0  0  0  0
    3.8444    0.0301    0.0000 C   0  0  0  0  0  0  0  0  0
    4.5589    0.4426    0.0000 C   0  0  0  0  0  0  0  0  0
    5.2734    0.0301    0.0000 C   0  0  0  0  0  0  0  0  0
    5.2734   -0.7949    0.0000 C   0  0  0  0  0  0  0  0  0
    4.5589   -1.2074    0.0000 C   0  0  0  0  0  0  0  0  0
    4.5589    1.2676    0.0000 C   0  0  0  0  0  0  0  0  0
    3.1300    0.4426    0.0000 C   0  0  0  0  0  0  0  0  0
    3.1300    1.2676    0.0000 C   0  0  0  0  0  0  0  0  0
  1  2  1  0  0  0  0
  2  3  4  0  0  0  0
  2 24  4  0  0  0  0
  3  4  4  0  0  0  0
  4  5  1  0  0  0  0
  4  7  4  0  0  0  0
  5  6  1  0  0  0  0
  7  8  1  0  0  0  0
  7 23  4  0  0  0  0
  8  9  1  0  0  0  0
  9 10  1  0  0  0  0
  9 16  1  0  0  0  0
 10 11  1  0  0  0  0
 10 15  1  0  0  0  0
 11 12  1  0  0  0  0
 12 13  1  0  0  0  0
 13 14  1  0  0  0  0
 14 15  1  0  0  0  0
 16 17  4  0  0  0  0
 16 21  4  0  0  0  0
 17 18  4  0  0  0  0
 18 19  4  0  0  0  0
 18 22  1  0  0  0  0
 19 20  4  0  0  0  0
 20 21  4  0  0  0  0
 23 24  4  0  0  0  0
M  END
>  <Name_Molregno>
428326

>  <Norepinephrine transporter>
7.8

>  <Serotonin transporter>
7.16

$$$$
428327
  Marvin  02231216192D 0   1.00000     0.00000     0

 24 26  0  0  1  0  0  0  0  0999 V2000
    2.5114    2.7029    0.0000 Cl  0  0  0  0  0  0  0  0  0
    2.5114    1.8779    0.0000 C   0  0  0  0  0  0  0  0  0
    1.7970    1.4654    0.0000 C   0  0  0  0  0  0  0  0  0
    1.7970    0.6404    0.0000 C   0  0  0  0  0  0  0  0  0
    1.0825    0.2279    0.0000 O   0  0  0  0  0  0  0  0  0
    1.0825   -0.5971    0.0000 C   0  0  0  0  0  0  0  0  0
    2.5114    0.2279    0.0000 C   0  0  0  0  0  0  0  0  0
    2.5114   -0.5971    0.0000 O   0  0  0  0  0  0  0  0  0
    3.2259   -1.0096    0.0000 C   0  0  0  0  0  0  0  0  0
    3.9404   -0.5971    0.0000 C   0  0  0  0  0  0  0  0  0
    3.9404    0.2279    0.0000 O   0  0  0  0  0  0  0  0  0
    4.6548    0.6404    0.0000 C   0  0  0  0  0  0  0  0  0
    5.3693    0.2279    0.0000 C   0  0  0  0  0  0  0  0  0
    5.3693   -0.5971    0.0000 N   0  0  0  0  0  0  0  0  0
    4.6548   -1.0096    0.0000 C   0  0  0  0  0  0  0  0  0
    3.2259   -1.8346    0.0000 C   0  0  0  0  0  0  0  0  0
    3.9404   -2.2471    0.0000 C   0  0  0  0  0  0  0  0  0
    3.9404   -3.0721    0.0000 C   0  0  0  0  0  0  0  0  0
    3.2259   -3.4846    0.0000 C   0  0  0  0  0  0  0  0  0
    2.5114   -3.0721    0.0000 C   0  0  0  0  0  0  0  0  0
    2.5114   -2.2471    0.0000 C   0  0  0  0  0  0  0  0  0
    3.2259   -4.3096    0.0000 C   0  0  0  0  0  0  0  0  0
    3.2259    0.6404    0.0000 C   0  0  0  0  0  0  0  0  0
    3.2259    1.4654    0.0000 C   0  0  0  0  0  0  0  0  0
  1  2  1  0  0  0  0
  2  3  4  0  0  0  0
  2 24  4  0  0  0  0
  3  4  4  0  0  0  0
  4  5  1  0  0  0  0
  4  7  4  0  0  0  0
  5  6  1  0  0  0  0
  7  8  1  0  0  0  0
  7 23  4  0  0  0  0
  8  9  1  0  0  0  0
  9 10  1  0  0  0  0
  9 16  1  0  0  0  0
 10 11  1  0  0  0  0
 10 15  1  0  0  0  0
 11 12  1  0  0  0  0
 12 13  1  0  0  0  0
 13 14  1  0  0  0  0
 14 15  1  0  0  0  0
 16 17  4  0  0  0  0
 16 21  4  0  0  0  0
 17 18  4  0  0  0  0
 18 19  4  0  0  0  0
 19 20  4  0  0  0  0
 19 22  1  0  0  0  0
 20 21  4  0  0  0  0
 23 24  4  0  0  0  0
M  END
>  <Name_Molregno>
428327

>  <Dopamine transporter>
5.78

>  <Norepinephrine transporter>
6.74

>  <Serotonin transporter>
7.06

$$$$
428328
  Marvin  02231216192D 0   1.00000     0.00000     0

 24 26  0  0  1  0  0  0  0  0999 V2000
    2.5114    2.7029    0.0000 Cl  0  0  0  0  0  0  0  0  0
    2.5114    1.8779    0.0000 C   0  0  0  0  0  0  0  0  0
    1.7970    1.4654    0.0000 C   0  0  0  0  0  0  0  0  0
    1.7970    0.6404    0.0000 C   0  0  0  0  0  0  0  0  0
    1.0825    0.2279    0.0000 O   0  0  0  0  0  0  0  0  0
    1.0825   -0.5971    0.0000 C   0  0  0  0  0  0  0  0  0
    2.5114    0.2279    0.0000 C   0  0  0  0  0  0  0  0  0
    2.5114   -0.5971    0.0000 O   0  0  0  0  0  0  0  0  0
    3.2259   -1.0096    0.0000 C   0  0  0  0  0  0  0  0  0
    3.9404   -0.5971    0.0000 C   0  0  0  0  0  0  0  0  0
    3.9404    0.2279    0.0000 O   0  0  0  0  0  0  0  0  0
    4.6548    0.6404    0.0000 C   0  0  0  0  0  0  0  0  0
    5.3693    0.2279    0.0000 C   0  0  0  0  0  0  0  0  0
    5.3693   -0.5971    0.0000 N   0  0  0  0  0  0  0  0  0
    4.6548   -1.0096    0.0000 C   0  0  0  0  0  0  0  0  0
    3.2259   -1.8346    0.0000 C   0  0  0  0  0  0  0  0  0
    3.9404   -2.2471    0.0000 C   0  0  0  0  0  0  0  0  0
    3.9404   -3.0721    0.0000 C   0  0  0  0  0  0  0  0  0
    3.2259   -3.4846    0.0000 C   0  0  0  0  0  0  0  0  0
    3.2259   -4.3096    0.0000 F   0  0  0  0  0  0  0  0  0
    2.5114   -3.0721    0.0000 C   0  0  0  0  0  0  0  0  0
    2.5114   -2.2471    0.0000 C   0  0  0  0  0  0  0  0  0
    3.2259    0.6404    0.0000 C   0  0  0  0  0  0  0  0  0
    3.2259    1.4654    0.0000 C   0  0  0  0  0  0  0  0  0
  1  2  1  0  0  0  0
  2  3  4  0  0  0  0
  2 24  4  0  0  0  0
  3  4  4  0  0  0  0
  4  5  1  0  0  0  0
  4  7  4  0  0  0  0
  5  6  1  0  0  0  0
  7  8  1  0  0  0  0
  7 23  4  0  0  0  0
  8  9  1  0  0  0  0
  9 10  1  0  0  0  0
  9 16  1  0  0  0  0
 10 11  1  0  0  0  0
 10 15  1  0  0  0  0
 11 12  1  0  0  0  0
 12 13  1  0  0  0  0
 13 14  1  0  0  0  0
 14 15  1  0  0  0  0
 16 17  4  0  0  0  0
 16 22  4  0  0  0  0
 17 18  4  0  0  0  0
 18 19  4  0  0  0  0
 19 20  1  0  0  0  0
 19 21  4  0  0  0  0
 21 22  4  0  0  0  0
 23 24  4  0  0  0  0
M  END
>  <Name_Molregno>
428328

>  <Norepinephrine transporter>
7.54

>  <Serotonin transporter>
7.21

$$$$
428329
  Marvin  02231216192D 0   1.00000     0.00000     0

 24 26  0  0  1  0  0  0  0  0999 V2000
    2.3349    4.2471    0.0000 Cl  0  0  0  0  0  0  0  0  0
    2.3349    3.4221    0.0000 C   0  0  0  0  0  0  0  0  0
    1.6204    3.0096    0.0000 C   0  0  0  0  0  0  0  0  0
    1.6204    2.1846    0.0000 C   0  0  0  0  0  0  0  0  0
    0.9059    1.7721    0.0000 O   0  0  0  0  0  0  0  0  0
    0.9059    0.9471    0.0000 C   0  0  0  0  0  0  0  0  0
    2.3349    1.7721    0.0000 C   0  0  0  0  0  0  0  0  0
    2.3349    0.9471    0.0000 O   0  0  0  0  0  0  0  0  0
    3.0493    0.5346    0.0000 C   0  0  0  0  0  0  0  0  0
    3.0493   -0.2904    0.0000 C   0  0  0  0  0  0  0  0  0
    3.7638   -0.7029    0.0000 C   0  0  0  0  0  0  0  0  0
    3.7638   -1.5279    0.0000 C   0  0  0  0  0  0  0  0  0
    3.0493   -1.9404    0.0000 C   0  0  0  0  0  0  0  0  0
    2.3349   -1.5279    0.0000 C   0  0  0  0  0  0  0  0  0
    2.3349   -0.7029    0.0000 C   0  0  0  0  0  0  0  0  0
    1.6204   -0.2904    0.0000 C   0  0  0  0  0  0  0  0  0
    3.7638    0.9471    0.0000 C   0  0  0  0  0  0  0  0  0
    3.7638    1.7721    0.0000 O   0  0  0  0  0  0  0  0  0
    4.4783    2.1846    0.0000 C   0  0  0  0  0  0  0  0  0
    5.1928    1.7721    0.0000 C   0  0  0  0  0  0  0  0  0
    5.1928    0.9471    0.0000 N   0  0  0  0  0  0  0  0  0
    4.4783    0.5346    0.0000 C   0  0  0  0  0  0  0  0  0
    3.0493    2.1846    0.0000 C   0  0  0  0  0  0  0  0  0
    3.0493    3.0096    0.0000 C   0  0  0  0  0  0  0  0  0
  1  2  1  0  0  0  0
  2  3  4  0  0  0  0
  2 24  4  0  0  0  0
  3  4  4  0  0  0  0
  4  5  1  0  0  0  0
  4  7  4  0  0  0  0
  5  6  1  0  0  0  0
  7  8  1  0  0  0  0
  7 23  4  0  0  0  0
  8  9  1  0  0  0  0
  9 10  1  0  0  0  0
  9 17  1  0  0  0  0
 10 11  4  0  0  0  0
 10 15  4  0  0  0  0
 11 12  4  0  0  0  0
 12 13  4  0  0  0  0
 13 14  4  0  0  0  0
 14 15  4  0  0  0  0
 15 16  1  0  0  0  0
 17 18  1  0  0  0  0
 17 22  1  0  0  0  0
 18 19  1  0  0  0  0
 19 20  1  0  0  0  0
 20 21  1  0  0  0  0
 21 22  1  0  0  0  0
 23 24  4  0  0  0  0
M  END
>  <Name_Molregno>
428329

>  <Norepinephrine transporter>
7.08

>  <Serotonin transporter>
7.15

$$$$
428375
  Marvin  02231216192D 0   1.00000     0.00000     0

 24 26  0  0  1  0  0  0  0  0999 V2000
    2.3349    4.2471    0.0000 Cl  0  0  0  0  0  0  0  0  0
    2.3349    3.4221    0.0000 C   0  0  0  0  0  0  0  0  0
    1.6204    3.0096    0.0000 C   0  0  0  0  0  0  0  0  0
    1.6204    2.1846    0.0000 C   0  0  0  0  0  0  0  0  0
    0.9059    1.7721    0.0000 O   0  0  0  0  0  0  0  0  0
    0.9059    0.9471    0.0000 C   0  0  0  0  0  0  0  0  0
    2.3349    1.7721    0.0000 C   0  0  0  0  0  0  0  0  0
    2.3349    0.9471    0.0000 O   0  0  0  0  0  0  0  0  0
    3.0493    0.5346    0.0000 C   0  0  0  0  0  0  0  0  0
    3.0493   -0.2904    0.0000 C   0  0  0  0  0  0  0  0  0
    3.7638   -0.7029    0.0000 C   0  0  0  0  0  0  0  0  0
    3.7638   -1.5279    0.0000 C   0  0  0  0  0  0  0  0  0
    3.0493   -1.9404    0.0000 C   0  0  0  0  0  0  0  0  0
    2.3349   -1.5279    0.0000 C   0  0  0  0  0  0  0  0  0
    2.3349   -0.7029    0.0000 C   0  0  0  0  0  0  0  0  0
    1.6204   -0.2904    0.0000 F   0  0  0  0  0  0  0  0  0
    3.7638    0.9471    0.0000 C   0  0  0  0  0  0  0  0  0
    3.7638    1.7721    0.0000 O   0  0  0  0  0  0  0  0  0
    4.4783    2.1846    0.0000 C   0  0  0  0  0  0  0  0  0
    5.1928    1.7721    0.0000 C   0  0  0  0  0  0  0  0  0
    5.1928    0.9471    0.0000 N   0  0  0  0  0  0  0  0  0
    4.4783    0.5346    0.0000 C   0  0  0  0  0  0  0  0  0
    3.0493    2.1846    0.0000 C   0  0  0  0  0  0  0  0  0
    3.0493    3.0096    0.0000 C   0  0  0  0  0  0  0  0  0
  1  2  1  0  0  0  0
  2  3  4  0  0  0  0
  2 24  4  0  0  0  0
  3  4  4  0  0  0  0
  4  5  1  0  0  0  0
  4  7  4  0  0  0  0
  5  6  1  0  0  0  0
  7  8  1  0  0  0  0
  7 23  4  0  0  0  0
  8  9  1  0  0  0  0
  9 10  1  0  0  0  0
  9 17  1  0  0  0  0
 10 11  4  0  0  0  0
 10 15  4  0  0  0  0
 11 12  4  0  0  0  0
 12 13  4  0  0  0  0
 13 14  4  0  0  0  0
 14 15  4  0  0  0  0
 15 16  1  0  0  0  0
 17 18  1  0  0  0  0
 17 22  1  0  0  0  0
 18 19  1  0  0  0  0
 19 20  1  0  0  0  0
 20 21  1  0  0  0  0
 21 22  1  0  0  0  0
 23 24  4  0  0  0  0
M  END
>  <Name_Molregno>
428375

>  <Norepinephrine transporter>
7.66

>  <Serotonin transporter>
7.15

$$$$
428376
  Marvin  02231216192D 0   1.00000     0.00000     0

 24 26  0  0  1  0  0  0  0  0999 V2000
    2.4155    2.5051    0.0000 Cl  0  0  0  0  0  0  0  0  0
    2.4155    1.6801    0.0000 C   0  0  0  0  0  0  0  0  0
    1.7010    1.2676    0.0000 C   0  0  0  0  0  0  0  0  0
    1.7010    0.4426    0.0000 C   0  0  0  0  0  0  0  0  0
    0.9866    0.0301    0.0000 O   0  0  0  0  0  0  0  0  0
    0.9866   -0.7949    0.0000 C   0  0  0  0  0  0  0  0  0
    2.4155    0.0301    0.0000 C   0  0  0  0  0  0  0  0  0
    2.4155   -0.7949    0.0000 O   0  0  0  0  0  0  0  0  0
    3.1300   -1.2074    0.0000 C   0  0  0  0  0  0  0  0  0
    3.1300   -2.0324    0.0000 C   0  0  0  0  0  0  0  0  0
    3.8444   -2.4449    0.0000 O   0  0  0  0  0  0  0  0  0
    3.8444   -3.2699    0.0000 C   0  0  0  0  0  0  0  0  0
    3.1300   -3.6824    0.0000 C   0  0  0  0  0  0  0  0  0
    2.4155   -3.2699    0.0000 N   0  0  0  0  0  0  0  0  0
    2.4155   -2.4449    0.0000 C   0  0  0  0  0  0  0  0  0
    3.8444   -0.7949    0.0000 C   0  0  0  0  0  0  0  0  0
    3.8444    0.0301    0.0000 C   0  0  0  0  0  0  0  0  0
    4.5589    0.4426    0.0000 C   0  0  0  0  0  0  0  0  0
    4.5589    1.2676    0.0000 F   0  0  0  0  0  0  0  0  0
    5.2734    0.0301    0.0000 C   0  0  0  0  0  0  0  0  0
    5.2734   -0.7949    0.0000 C   0  0  0  0  0  0  0  0  0
    4.5589   -1.2074    0.0000 C   0  0  0  0  0  0  0  0  0
    3.1300    0.4426    0.0000 C   0  0  0  0  0  0  0  0  0
    3.1300    1.2676    0.0000 C   0  0  0  0  0  0  0  0  0
  1  2  1  0  0  0  0
  2  3  4  0  0  0  0
  2 24  4  0  0  0  0
  3  4  4  0  0  0  0
  4  5  1  0  0  0  0
  4  7  4  0  0  0  0
  5  6  1  0  0  0  0
  7  8  1  0  0  0  0
  7 23  4  0  0  0  0
  8  9  1  0  0  0  0
  9 10  1  0  0  0  0
  9 16  1  0  0  0  0
 10 11  1  0  0  0  0
 10 15  1  0  0  0  0
 11 12  1  0  0  0  0
 12 13  1  0  0  0  0
 13 14  1  0  0  0  0
 14 15  1  0  0  0  0
 16 17  4  0  0  0  0
 16 22  4  0  0  0  0
 17 18  4  0  0  0  0
 18 19  1  0  0  0  0
 18 20  4  0  0  0  0
 20 21  4  0  0  0  0
 21 22  4  0  0  0  0
 23 24  4  0  0  0  0
M  END
>  <Name_Molregno>
428376

>  <Dopamine transporter>
4.98

>  <Norepinephrine transporter>
8.05

>  <Serotonin transporter>
7.24

$$$$
428377
  Marvin  02231216192D 0   1.00000     0.00000     0

 26 28  0  0  1  0  0  0  0  0999 V2000
    2.0561    3.3707    0.0000 F   0  0  0  0  0  0  0  0  0
    2.0561    2.5457    0.0000 C   0  0  0  0  0  0  0  0  0
    2.8811    2.5457    0.0000 F   0  0  0  0  0  0  0  0  0
    1.2311    2.5457    0.0000 F   0  0  0  0  0  0  0  0  0
    2.0561    1.7207    0.0000 C   0  0  0  0  0  0  0  0  0
    1.3417    1.3082    0.0000 C   0  0  0  0  0  0  0  0  0
    1.3417    0.4832    0.0000 C   0  0  0  0  0  0  0  0  0
    0.6272    0.0707    0.0000 O   0  0  0  0  0  0  0  0  0
    0.6272   -0.7543    0.0000 C   0  0  0  0  0  0  0  0  0
    2.0561    0.0707    0.0000 C   0  0  0  0  0  0  0  0  0
    2.0561   -0.7543    0.0000 O   0  0  0  0  0  0  0  0  0
    2.7706   -1.1668    0.0000 C   0  0  0  0  0  0  0  0  0
    2.7706   -1.9918    0.0000 C   0  0  0  0  0  0  0  0  0
    3.4851   -2.4043    0.0000 O   0  0  0  0  0  0  0  0  0
    3.4851   -3.2293    0.0000 C   0  0  0  0  0  0  0  0  0
    2.7706   -3.6418    0.0000 C   0  0  0  0  0  0  0  0  0
    2.0561   -3.2293    0.0000 N   0  0  0  0  0  0  0  0  0
    2.0561   -2.4043    0.0000 C   0  0  0  0  0  0  0  0  0
    3.4851   -0.7543    0.0000 C   0  0  0  0  0  0  0  0  0
    3.4851    0.0707    0.0000 C   0  0  0  0  0  0  0  0  0
    4.1995    0.4832    0.0000 C   0  0  0  0  0  0  0  0  0
    4.9140    0.0707    0.0000 C   0  0  0  0  0  0  0  0  0
    4.9140   -0.7543    0.0000 C   0  0  0  0  0  0  0  0  0
    4.1995   -1.1668    0.0000 C   0  0  0  0  0  0  0  0  0
    2.7706    0.4832    0.0000 C   0  0  0  0  0  0  0  0  0
    2.7706    1.3082    0.0000 C   0  0  0  0  0  0  0  0  0
  1  2  1  0  0  0  0
  2  3  1  0  0  0  0
  2  4  1  0  0  0  0
  2  5  1  0  0  0  0
  5  6  4  0  0  0  0
  5 26  4  0  0  0  0
  6  7  4  0  0  0  0
  7  8  1  0  0  0  0
  7 10  4  0  0  0  0
  8  9  1  0  0  0  0
 10 11  1  0  0  0  0
 10 25  4  0  0  0  0
 11 12  1  0  0  0  0
 12 13  1  0  0  0  0
 12 19  1  0  0  0  0
 13 14  1  0  0  0  0
 13 18  1  0  0  0  0
 14 15  1  0  0  0  0
 15 16  1  0  0  0  0
 16 17  1  0  0  0  0
 17 18  1  0  0  0  0
 19 20  4  0  0  0  0
 19 24  4  0  0  0  0
 20 21  4  0  0  0  0
 21 22  4  0  0  0  0
 22 23  4  0  0  0  0
 23 24  4  0  0  0  0
 25 26  4  0  0  0  0
M  END
>  <Name_Molregno>
428377

>  <Norepinephrine transporter>
6.8

>  <Serotonin transporter>
7.39

$$$$
428378
  Marvin  02231216192D 0   1.00000     0.00000     0

 23 25  0  0  1  0  0  0  0  0999 V2000
    0.0616    0.1026    0.0000 Cl  0  0  0  0  0  0  0  0  0
    0.0616   -0.7224    0.0000 C   0  0  0  0  0  0  0  0  0
    0.7761   -1.1349    0.0000 C   0  0  0  0  0  0  0  0  0
    0.7761   -1.9599    0.0000 C   0  0  0  0  0  0  0  0  0
    1.4906   -2.3724    0.0000 O   0  0  0  0  0  0  0  0  0
    1.4906   -3.1974    0.0000 C   0  0  0  0  0  0  0  0  0
    0.0616   -2.3724    0.0000 C   0  0  0  0  0  0  0  0  0
   -0.6528   -1.9599    0.0000 C   0  0  0  0  0  0  0  0  0
   -0.6528   -1.1349    0.0000 C   0  0  0  0  0  0  0  0  0
   -1.3673   -0.7224    0.0000 O   0  0  0  0  0  0  0  0  0
   -2.0818   -1.1349    0.0000 C   0  0  0  0  0  0  0  0  0
   -2.7962   -0.7224    0.0000 C   0  0  0  0  0  0  0  0  0
   -3.5107   -1.1349    0.0000 O   0  0  0  0  0  0  0  0  0
   -4.2252   -0.7224    0.0000 C   0  0  0  0  0  0  0  0  0
   -4.2252    0.1026    0.0000 C   0  0  0  0  0  0  0  0  0
   -3.5107    0.5151    0.0000 N   0  0  0  0  0  0  0  0  0
   -2.7962    0.1026    0.0000 C   0  0  0  0  0  0  0  0  0
   -2.0818   -1.9599    0.0000 C   0  0  0  0  0  0  0  0  0
   -1.3673   -2.3724    0.0000 C   0  0  0  0  0  0  0  0  0
   -1.3673   -3.1974    0.0000 C   0  0  0  0  0  0  0  0  0
   -2.0818   -3.6099    0.0000 C   0  0  0  0  0  0  0  0  0
   -2.7962   -3.1974    0.0000 C   0  0  0  0  0  0  0  0  0
   -2.7962   -2.3724    0.0000 C   0  0  0  0  0  0  0  0  0
  1  2  1  0  0  0  0
  2  3  4  0  0  0  0
  2  9  4  0  0  0  0
  3  4  4  0  0  0  0
  4  5  1  0  0  0  0
  4  7  4  0  0  0  0
  5  6  1  0  0  0  0
  7  8  4  0  0  0  0
  8  9  4  0  0  0  0
  9 10  1  0  0  0  0
 10 11  1  0  0  0  0
 11 12  1  0  0  0  0
 11 18  1  0  0  0  0
 12 13  1  0  0  0  0
 12 17  1  0  0  0  0
 13 14  1  0  0  0  0
 14 15  1  0  0  0  0
 15 16  1  0  0  0  0
 16 17  1  0  0  0  0
 18 19  4  0  0  0  0
 18 23  4  0  0  0  0
 19 20  4  0  0  0  0
 20 21  4  0  0  0  0
 21 22  4  0  0  0  0
 22 23  4  0  0  0  0
M  END
>  <Name_Molregno>
428378

>  <Dopamine transporter>
5.96

>  <Norepinephrine transporter>
7.55

>  <Serotonin transporter>
7.02

$$$$
428427
  Marvin  02231216192D 0   1.00000     0.00000     0

 24 26  0  0  1  0  0  0  0  0999 V2000
    1.3757   -2.6227    0.0000 O   0  0  0  0  0  0  0  0  0
    1.3757   -3.4477    0.0000 C   0  0  0  0  0  0  0  0  0
    2.0902   -3.8602    0.0000 C   0  0  0  0  0  0  0  0  0
    2.8046   -3.4477    0.0000 N   0  0  0  0  0  0  0  0  0
    2.8046   -2.6227    0.0000 C   0  0  0  0  0  0  0  0  0
    2.0902   -2.2102    0.0000 C   0  0  0  0  0  0  0  0  0
    2.0902   -1.3852    0.0000 C   0  0  0  0  0  0  0  0  0
    1.3757   -0.9727    0.0000 O   0  0  0  0  0  0  0  0  0
    1.3757   -0.1477    0.0000 C   0  0  0  0  0  0  0  0  0
    2.0902    0.2648    0.0000 C   0  0  0  0  0  0  0  0  0
    2.0902    1.0898    0.0000 C   0  0  0  0  0  0  0  0  0
    1.3757    1.5023    0.0000 C   0  0  0  0  0  0  0  0  0
    0.6612    1.0898    0.0000 C   0  0  0  0  0  0  0  0  0
    0.6612    0.2648    0.0000 C   0  0  0  0  0  0  0  0  0
   -0.0532   -0.1477    0.0000 O   0  0  0  0  0  0  0  0  0
   -0.7677    0.2648    0.0000 C   0  0  0  0  0  0  0  0  0
    1.3757    2.3273    0.0000 C   0  0  0  0  0  0  0  0  0
    1.3757    3.1523    0.0000 N   0  0  0  0  0  0  0  0  0
    2.8046   -0.9727    0.0000 C   0  0  0  0  0  0  0  0  0
    2.8046   -0.1477    0.0000 C   0  0  0  0  0  0  0  0  0
    3.5191    0.2648    0.0000 C   0  0  0  0  0  0  0  0  0
    4.2336   -0.1477    0.0000 C   0  0  0  0  0  0  0  0  0
    4.2336   -0.9727    0.0000 C   0  0  0  0  0  0  0  0  0
    3.5191   -1.3852    0.0000 C   0  0  0  0  0  0  0  0  0
  1  2  1  0  0  0  0
  1  6  1  0  0  0  0
  2  3  1  0  0  0  0
  3  4  1  0  0  0  0
  4  5  1  0  0  0  0
  5  6  1  0  0  0  0
  6  7  1  0  0  0  0
  7  8  1  0  0  0  0
  7 19  1  0  0  0  0
  8  9  1  0  0  0  0
  9 10  4  0  0  0  0
  9 14  4  0  0  0  0
 10 11  4  0  0  0  0
 11 12  4  0  0  0  0
 12 13  4  0  0  0  0
 12 17  1  0  0  0  0
 13 14  4  0  0  0  0
 14 15  1  0  0  0  0
 15 16  1  0  0  0  0
 17 18  3  0  0  0  0
 19 20  4  0  0  0  0
 19 24  4  0  0  0  0
 20 21  4  0  0  0  0
 21 22  4  0  0  0  0
 22 23  4  0  0  0  0
 23 24  4  0  0  0  0
M  END
>  <Name_Molregno>
428427

>  <Norepinephrine transporter>
6.68

>  <Serotonin transporter>
6.96

$$$$
428428
  Marvin  02231216192D 0   1.00000     0.00000     0

 23 25  0  0  1  0  0  0  0  0999 V2000
    2.2578    4.1005    0.0000 Br  0  0  0  0  0  0  0  0  0
    2.2578    3.2755    0.0000 C   0  0  0  0  0  0  0  0  0
    1.5434    2.8630    0.0000 C   0  0  0  0  0  0  0  0  0
    1.5434    2.0380    0.0000 C   0  0  0  0  0  0  0  0  0
    0.8289    1.6255    0.0000 O   0  0  0  0  0  0  0  0  0
    0.8289    0.8005    0.0000 C   0  0  0  0  0  0  0  0  0
    2.2578    1.6255    0.0000 C   0  0  0  0  0  0  0  0  0
    2.2578    0.8005    0.0000 O   0  0  0  0  0  0  0  0  0
    2.9723    0.3880    0.0000 C   0  0  0  0  0  0  0  0  0
    2.9723   -0.4370    0.0000 C   0  0  0  0  0  0  0  0  0
    3.6868   -0.8495    0.0000 O   0  0  0  0  0  0  0  0  0
    3.6868   -1.6745    0.0000 C   0  0  0  0  0  0  0  0  0
    2.9723   -2.0870    0.0000 C   0  0  0  0  0  0  0  0  0
    2.2578   -1.6745    0.0000 N   0  0  0  0  0  0  0  0  0
    2.2578   -0.8495    0.0000 C   0  0  0  0  0  0  0  0  0
    3.6868    0.8005    0.0000 C   0  0  0  0  0  0  0  0  0
    3.6868    1.6255    0.0000 C   0  0  0  0  0  0  0  0  0
    4.4013    2.0380    0.0000 C   0  0  0  0  0  0  0  0  0
    5.1157    1.6255    0.0000 C   0  0  0  0  0  0  0  0  0
    5.1157    0.8005    0.0000 C   0  0  0  0  0  0  0  0  0
    4.4013    0.3880    0.0000 C   0  0  0  0  0  0  0  0  0
    2.9723    2.0380    0.0000 C   0  0  0  0  0  0  0  0  0
    2.9723    2.8630    0.0000 C   0  0  0  0  0  0  0  0  0
  1  2  1  0  0  0  0
  2  3  4  0  0  0  0
  2 23  4  0  0  0  0
  3  4  4  0  0  0  0
  4  5  1  0  0  0  0
  4  7  4  0  0  0  0
  5  6  1  0  0  0  0
  7  8  1  0  0  0  0
  7 22  4  0  0  0  0
  8  9  1  0  0  0  0
  9 10  1  0  0  0  0
  9 16  1  0  0  0  0
 10 11  1  0  0  0  0
 10 15  1  0  0  0  0
 11 12  1  0  0  0  0
 12 13  1  0  0  0  0
 13 14  1  0  0  0  0
 14 15  1  0  0  0  0
 16 17  4  0  0  0  0
 16 21  4  0  0  0  0
 17 18  4  0  0  0  0
 18 19  4  0  0  0  0
 19 20  4  0  0  0  0
 20 21  4  0  0  0  0
 22 23  4  0  0  0  0
M  END
>  <Name_Molregno>
428428

>  <Norepinephrine transporter>
7.92

>  <Serotonin transporter>
7.52

$$$$
428429
  Marvin  02231216192D 0   1.00000     0.00000     0

 23 26  0  0  1  0  0  0  0  0999 V2000
    2.6724   -1.3155    0.0000 O   0  0  0  0  0  0  0  0  0
    2.6724   -2.1405    0.0000 C   0  0  0  0  0  0  0  0  0
    1.9579   -2.5530    0.0000 C   0  0  0  0  0  0  0  0  0
    1.2434   -2.1405    0.0000 N   0  0  0  0  0  0  0  0  0
    1.2434   -1.3155    0.0000 C   0  0  0  0  0  0  0  0  0
    1.9579   -0.9030    0.0000 C   0  0  0  0  0  0  0  0  0
    1.9579   -0.0780    0.0000 C   0  0  0  0  0  0  0  0  0
    1.2434    0.3345    0.0000 O   0  0  0  0  0  0  0  0  0
    1.2434    1.1595    0.0000 C   0  0  0  0  0  0  0  0  0
    0.5290    1.5720    0.0000 C   0  0  0  0  0  0  0  0  0
   -0.2557    1.3170    0.0000 O   0  0  0  0  0  0  0  0  0
   -0.7406    1.9845    0.0000 C   0  0  0  0  0  0  0  0  0
   -0.2557    2.6519    0.0000 C   0  0  0  0  0  0  0  0  0
    0.5290    2.3970    0.0000 C   0  0  0  0  0  0  0  0  0
    1.2434    2.8095    0.0000 C   0  0  0  0  0  0  0  0  0
    1.9579    2.3970    0.0000 C   0  0  0  0  0  0  0  0  0
    1.9579    1.5720    0.0000 C   0  0  0  0  0  0  0  0  0
    2.6724    0.3345    0.0000 C   0  0  0  0  0  0  0  0  0
    2.6724    1.1595    0.0000 C   0  0  0  0  0  0  0  0  0
    3.3869    1.5720    0.0000 C   0  0  0  0  0  0  0  0  0
    4.1013    1.1595    0.0000 C   0  0  0  0  0  0  0  0  0
    4.1013    0.3345    0.0000 C   0  0  0  0  0  0  0  0  0
    3.3869   -0.0780    0.0000 C   0  0  0  0  0  0  0  0  0
  1  2  1  0  0  0  0
  1  6  1  0  0  0  0
  2  3  1  0  0  0  0
  3  4  1  0  0  0  0
  4  5  1  0  0  0  0
  5  6  1  0  0  0  0
  6  7  1  0  0  0  0
  7  8  1  0  0  0  0
  7 18  1  0  0  0  0
  8  9  1  0  0  0  0
  9 10  4  0  0  0  0
  9 17  4  0  0  0  0
 10 11  1  0  0  0  0
 10 14  4  0  0  0  0
 11 12  1  0  0  0  0
 12 13  1  0  0  0  0
 13 14  1  0  0  0  0
 14 15  4  0  0  0  0
 15 16  4  0  0  0  0
 16 17  4  0  0  0  0
 18 19  4  0  0  0  0
 18 23  4  0  0  0  0
 19 20  4  0  0  0  0
 20 21  4  0  0  0  0
 21 22  4  0  0  0  0
 22 23  4  0  0  0  0
M  END
>  <Name_Molregno>
428429

>  <Dopamine transporter>
5.24

>  <Norepinephrine transporter>
7.19

>  <Serotonin transporter>
6.72

$$$$
428430
  Marvin  02231216192D 0   1.00000     0.00000     0

 22 24  0  0  1  0  0  0  0  0999 V2000
    3.2779    0.0478    0.0000 Cl  0  0  0  0  0  0  0  0  0
    3.2779   -0.7772    0.0000 C   0  0  0  0  0  0  0  0  0
    2.5634   -1.1897    0.0000 C   0  0  0  0  0  0  0  0  0
    1.8490   -0.7772    0.0000 O   0  0  0  0  0  0  0  0  0
    1.1345   -1.1897    0.0000 C   0  0  0  0  0  0  0  0  0
    0.4200   -0.7772    0.0000 C   0  0  0  0  0  0  0  0  0
   -0.2944   -1.1897    0.0000 O   0  0  0  0  0  0  0  0  0
   -1.0089   -0.7772    0.0000 C   0  0  0  0  0  0  0  0  0
   -1.0089    0.0478    0.0000 C   0  0  0  0  0  0  0  0  0
   -0.2944    0.4603    0.0000 N   0  0  0  0  0  0  0  0  0
    0.4200    0.0478    0.0000 C   0  0  0  0  0  0  0  0  0
    1.1345   -2.0147    0.0000 C   0  0  0  0  0  0  0  0  0
    1.8490   -2.4272    0.0000 C   0  0  0  0  0  0  0  0  0
    1.8490   -3.2522    0.0000 C   0  0  0  0  0  0  0  0  0
    1.1345   -3.6647    0.0000 C   0  0  0  0  0  0  0  0  0
    0.4200   -3.2522    0.0000 C   0  0  0  0  0  0  0  0  0
    0.4200   -2.4272    0.0000 C   0  0  0  0  0  0  0  0  0
    2.5634   -2.0147    0.0000 C   0  0  0  0  0  0  0  0  0
    3.2779   -2.4272    0.0000 C   0  0  0  0  0  0  0  0  0
    3.9924   -2.0147    0.0000 C   0  0  0  0  0  0  0  0  0
    3.9924   -1.1897    0.0000 C   0  0  0  0  0  0  0  0  0
    4.7068   -0.7772    0.0000 Cl  0  0  0  0  0  0  0  0  0
  1  2  1  0  0  0  0
  2  3  4  0  0  0  0
  2 21  4  0  0  0  0
  3  4  1  0  0  0  0
  3 18  4  0  0  0  0
  4  5  1  0  0  0  0
  5  6  1  0  0  0  0
  5 12  1  0  0  0  0
  6  7  1  0  0  0  0
  6 11  1  0  0  0  0
  7  8  1  0  0  0  0
  8  9  1  0  0  0  0
  9 10  1  0  0  0  0
 10 11  1  0  0  0  0
 12 13  4  0  0  0  0
 12 17  4  0  0  0  0
 13 14  4  0  0  0  0
 14 15  4  0  0  0  0
 15 16  4  0  0  0  0
 16 17  4  0  0  0  0
 18 19  4  0  0  0  0
 19 20  4  0  0  0  0
 20 21  4  0  0  0  0
 21 22  1  0  0  0  0
M  END
>  <Name_Molregno>
428430

>  <Dopamine transporter>
6.38

>  <Norepinephrine transporter>
7.77

>  <Serotonin transporter>
7

$$$$
428471
  Marvin  02231216192D 0   1.00000     0.00000     0

 22 24  0  0  1  0  0  0  0  0999 V2000
    3.2779    0.0478    0.0000 F   0  0  0  0  0  0  0  0  0
    3.2779   -0.7772    0.0000 C   0  0  0  0  0  0  0  0  0
    2.5634   -1.1897    0.0000 C   0  0  0  0  0  0  0  0  0
    1.8490   -0.7772    0.0000 O   0  0  0  0  0  0  0  0  0
    1.1345   -1.1897    0.0000 C   0  0  0  0  0  0  0  0  0
    0.4200   -0.7772    0.0000 C   0  0  0  0  0  0  0  0  0
   -0.2944   -1.1897    0.0000 O   0  0  0  0  0  0  0  0  0
   -1.0089   -0.7772    0.0000 C   0  0  0  0  0  0  0  0  0
   -1.0089    0.0478    0.0000 C   0  0  0  0  0  0  0  0  0
   -0.2944    0.4603    0.0000 N   0  0  0  0  0  0  0  0  0
    0.4200    0.0478    0.0000 C   0  0  0  0  0  0  0  0  0
    1.1345   -2.0147    0.0000 C   0  0  0  0  0  0  0  0  0
    1.8490   -2.4272    0.0000 C   0  0  0  0  0  0  0  0  0
    1.8490   -3.2522    0.0000 C   0  0  0  0  0  0  0  0  0
    1.1345   -3.6647    0.0000 C   0  0  0  0  0  0  0  0  0
    0.4200   -3.2522    0.0000 C   0  0  0  0  0  0  0  0  0
    0.4200   -2.4272    0.0000 C   0  0  0  0  0  0  0  0  0
    2.5634   -2.0147    0.0000 C   0  0  0  0  0  0  0  0  0
    3.2779   -2.4272    0.0000 C   0  0  0  0  0  0  0  0  0
    3.9924   -2.0147    0.0000 C   0  0  0  0  0  0  0  0  0
    3.9924   -1.1897    0.0000 C   0  0  0  0  0  0  0  0  0
    4.7068   -0.7772    0.0000 F   0  0  0  0  0  0  0  0  0
  1  2  1  0  0  0  0
  2  3  4  0  0  0  0
  2 21  4  0  0  0  0
  3  4  1  0  0  0  0
  3 18  4  0  0  0  0
  4  5  1  0  0  0  0
  5  6  1  0  0  0  0
  5 12  1  0  0  0  0
  6  7  1  0  0  0  0
  6 11  1  0  0  0  0
  7  8  1  0  0  0  0
  8  9  1  0  0  0  0
  9 10  1  0  0  0  0
 10 11  1  0  0  0  0
 12 13  4  0  0  0  0
 12 17  4  0  0  0  0
 13 14  4  0  0  0  0
 14 15  4  0  0  0  0
 15 16  4  0  0  0  0
 16 17  4  0  0  0  0
 18 19  4  0  0  0  0
 19 20  4  0  0  0  0
 20 21  4  0  0  0  0
 21 22  1  0  0  0  0
M  END
>  <Name_Molregno>
428471

>  <Dopamine transporter>
6.01

>  <Norepinephrine transporter>
7.44

>  <Serotonin transporter>
6.69

$$$$
428474
  Marvin  02231216192D 0   1.00000     0.00000     0

 22 24  0  0  1  0  0  0  0  0999 V2000
    2.2978    2.3823    0.0000 F   0  0  0  0  0  0  0  0  0
    2.2978    1.5573    0.0000 C   0  0  0  0  0  0  0  0  0
    1.5834    1.1448    0.0000 C   0  0  0  0  0  0  0  0  0
    1.5834    0.3198    0.0000 C   0  0  0  0  0  0  0  0  0
    0.8689   -0.0927    0.0000 C   0  0  0  0  0  0  0  0  0
    2.2978   -0.0927    0.0000 C   0  0  0  0  0  0  0  0  0
    2.2978   -0.9177    0.0000 O   0  0  0  0  0  0  0  0  0
    3.0123   -1.3302    0.0000 C   0  0  0  0  0  0  0  0  0
    3.0123   -2.1552    0.0000 C   0  0  0  0  0  0  0  0  0
    3.7268   -2.5677    0.0000 O   0  0  0  0  0  0  0  0  0
    3.7268   -3.3927    0.0000 C   0  0  0  0  0  0  0  0  0
    3.0123   -3.8052    0.0000 C   0  0  0  0  0  0  0  0  0
    2.2978   -3.3927    0.0000 N   0  0  0  0  0  0  0  0  0
    2.2978   -2.5677    0.0000 C   0  0  0  0  0  0  0  0  0
    3.7268   -0.9177    0.0000 C   0  0  0  0  0  0  0  0  0
    3.7268   -0.0927    0.0000 C   0  0  0  0  0  0  0  0  0
    4.4412    0.3198    0.0000 C   0  0  0  0  0  0  0  0  0
    5.1557   -0.0927    0.0000 C   0  0  0  0  0  0  0  0  0
    5.1557   -0.9177    0.0000 C   0  0  0  0  0  0  0  0  0
    4.4412   -1.3302    0.0000 C   0  0  0  0  0  0  0  0  0
    3.0123    0.3198    0.0000 C   0  0  0  0  0  0  0  0  0
    3.0123    1.1448    0.0000 C   0  0  0  0  0  0  0  0  0
  1  2  1  0  0  0  0
  2  3  4  0  0  0  0
  2 22  4  0  0  0  0
  3  4  4  0  0  0  0
  4  5  1  0  0  0  0
  4  6  4  0  0  0  0
  6  7  1  0  0  0  0
  6 21  4  0  0  0  0
  7  8  1  0  0  0  0
  8  9  1  0  0  0  0
  8 15  1  0  0  0  0
  9 10  1  0  0  0  0
  9 14  1  0  0  0  0
 10 11  1  0  0  0  0
 11 12  1  0  0  0  0
 12 13  1  0  0  0  0
 13 14  1  0  0  0  0
 15 16  4  0  0  0  0
 15 20  4  0  0  0  0
 16 17  4  0  0  0  0
 17 18  4  0  0  0  0
 18 19  4  0  0  0  0
 19 20  4  0  0  0  0
 21 22  4  0  0  0  0
M  END
>  <Name_Molregno>
428474

>  <Dopamine transporter>
5.96

>  <Norepinephrine transporter>
6.91

>  <Serotonin transporter>
7.1

$$$$
428520
  Marvin  02231216192D 0   1.00000     0.00000     0

 22 24  0  0  1  0  0  0  0  0999 V2000
    0.0538    0.0291    0.0000 Cl  0  0  0  0  0  0  0  0  0
    0.0538   -0.7959    0.0000 C   0  0  0  0  0  0  0  0  0
    0.7682   -1.2084    0.0000 C   0  0  0  0  0  0  0  0  0
    0.7682   -2.0334    0.0000 C   0  0  0  0  0  0  0  0  0
    1.4827   -2.4459    0.0000 F   0  0  0  0  0  0  0  0  0
    0.0538   -2.4459    0.0000 C   0  0  0  0  0  0  0  0  0
   -0.6607   -2.0334    0.0000 C   0  0  0  0  0  0  0  0  0
   -0.6607   -1.2084    0.0000 C   0  0  0  0  0  0  0  0  0
   -1.3752   -0.7959    0.0000 O   0  0  0  0  0  0  0  0  0
   -2.0897   -1.2084    0.0000 C   0  0  0  0  0  0  0  0  0
   -2.8041   -0.7959    0.0000 C   0  0  0  0  0  0  0  0  0
   -3.5186   -1.2084    0.0000 O   0  0  0  0  0  0  0  0  0
   -4.2331   -0.7959    0.0000 C   0  0  0  0  0  0  0  0  0
   -4.2331    0.0291    0.0000 C   0  0  0  0  0  0  0  0  0
   -3.5186    0.4416    0.0000 N   0  0  0  0  0  0  0  0  0
   -2.8041    0.0291    0.0000 C   0  0  0  0  0  0  0  0  0
   -2.0897   -2.0334    0.0000 C   0  0  0  0  0  0  0  0  0
   -1.3752   -2.4459    0.0000 C   0  0  0  0  0  0  0  0  0
   -1.3752   -3.2709    0.0000 C   0  0  0  0  0  0  0  0  0
   -2.0897   -3.6834    0.0000 C   0  0  0  0  0  0  0  0  0
   -2.8041   -3.2709    0.0000 C   0  0  0  0  0  0  0  0  0
   -2.8041   -2.4459    0.0000 C   0  0  0  0  0  0  0  0  0
  1  2  1  0  0  0  0
  2  3  4  0  0  0  0
  2  8  4  0  0  0  0
  3  4  4  0  0  0  0
  4  5  1  0  0  0  0
  4  6  4  0  0  0  0
  6  7  4  0  0  0  0
  7  8  4  0  0  0  0
  8  9  1  0  0  0  0
  9 10  1  0  0  0  0
 10 11  1  0  0  0  0
 10 17  1  0  0  0  0
 11 12  1  0  0  0  0
 11 16  1  0  0  0  0
 12 13  1  0  0  0  0
 13 14  1  0  0  0  0
 14 15  1  0  0  0  0
 15 16  1  0  0  0  0
 17 18  4  0  0  0  0
 17 22  4  0  0  0  0
 18 19  4  0  0  0  0
 19 20  4  0  0  0  0
 20 21  4  0  0  0  0
 21 22  4  0  0  0  0
M  END
>  <Name_Molregno>
428520

>  <Dopamine transporter>
6.02

>  <Norepinephrine transporter>
7

>  <Serotonin transporter>
7.15

$$$$
433477
  Marvin  02231216192D 0   1.00000     0.00000     0

 20 21  0  0  0  0  0  0  0  0999 V2000
   -0.1072    0.3399    0.0000 O   0  0  0  0  0  0  0  0  0
   -0.1072   -0.4851    0.0000 C   0  0  0  0  0  0  0  0  0
    0.6072   -0.8976    0.0000 C   0  0  0  0  0  0  0  0  0
    0.6072   -1.7226    0.0000 C   0  0  0  0  0  0  0  0  0
   -0.1072   -2.1351    0.0000 N   0  0  0  0  0  0  0  0  0
   -0.8217   -1.7226    0.0000 C   0  0  0  0  0  0  0  0  0
   -0.8217   -0.8976    0.0000 C   0  0  0  0  0  0  0  0  0
   -1.5362   -0.4851    0.0000 C   0  0  0  0  0  0  0  0  0
   -2.2507   -0.8976    0.0000 N   0  0  0  0  0  0  0  0  0
   -2.9651   -0.4851    0.0000 C   0  0  0  0  0  0  0  0  0
   -2.2507   -1.7226    0.0000 C   0  0  0  0  0  0  0  0  0
    1.3217   -2.1351    0.0000 C   0  0  0  0  0  0  0  0  0
    0.6072    0.7524    0.0000 C   0  0  0  0  0  0  0  0  0
    0.6072    1.5774    0.0000 C   0  0  0  0  0  0  0  0  0
    1.3217    1.9899    0.0000 C   0  0  0  0  0  0  0  0  0
    2.0362    1.5774    0.0000 C   0  0  0  0  0  0  0  0  0
    2.0362    0.7524    0.0000 C   0  0  0  0  0  0  0  0  0
    1.3217    0.3399    0.0000 C   0  0  0  0  0  0  0  0  0
    1.3217   -0.4851    0.0000 O   0  0  0  0  0  0  0  0  0
    2.0362   -0.8976    0.0000 C   0  0  0  0  0  0  0  0  0
  1  2  1  0  0  0  0
  1 13  1  0  0  0  0
  2  3  4  0  0  0  0
  2  7  4  0  0  0  0
  3  4  4  0  0  0  0
  4  5  4  0  0  0  0
  4 12  1  0  0  0  0
  5  6  4  0  0  0  0
  6  7  4  0  0  0  0
  7  8  1  0  0  0  0
  8  9  1  0  0  0  0
  9 10  1  0  0  0  0
  9 11  1  0  0  0  0
 13 14  4  0  0  0  0
 13 18  4  0  0  0  0
 14 15  4  0  0  0  0
 15 16  4  0  0  0  0
 16 17  4  0  0  0  0
 17 18  4  0  0  0  0
 18 19  1  0  0  0  0
 19 20  1  0  0  0  0
M  END
>  <Name_Molregno>
433477

>  <Dopamine transporter>
5.39

>  <Norepinephrine transporter>
6.53

>  <Serotonin transporter>
5.85

$$$$
433479
  Marvin  02231216192D 0   1.00000     0.00000     0

 20 21  0  0  0  0  0  0  0  0999 V2000
    0.6966    0.2116    0.0000 O   0  0  0  0  0  0  0  0  0
    0.6966   -0.6134    0.0000 C   0  0  0  0  0  0  0  0  0
    1.4111   -1.0259    0.0000 C   0  0  0  0  0  0  0  0  0
    1.4111   -1.8509    0.0000 C   0  0  0  0  0  0  0  0  0
    0.6966   -2.2634    0.0000 N   0  0  0  0  0  0  0  0  0
   -0.0178   -1.8509    0.0000 C   0  0  0  0  0  0  0  0  0
   -0.0178   -1.0259    0.0000 C   0  0  0  0  0  0  0  0  0
   -0.7323   -0.6134    0.0000 C   0  0  0  0  0  0  0  0  0
   -1.4468   -1.0259    0.0000 N   0  0  0  0  0  0  0  0  0
   -1.4468   -1.8509    0.0000 C   0  0  0  0  0  0  0  0  0
    2.1256   -2.2634    0.0000 C   0  0  0  0  0  0  0  0  0
   -0.0178    0.6241    0.0000 C   0  0  0  0  0  0  0  0  0
   -0.7323    0.2116    0.0000 C   0  0  0  0  0  0  0  0  0
   -1.4468    0.6241    0.0000 C   0  0  0  0  0  0  0  0  0
   -1.4468    1.4491    0.0000 C   0  0  0  0  0  0  0  0  0
   -0.7323    1.8616    0.0000 C   0  0  0  0  0  0  0  0  0
   -0.0178    1.4491    0.0000 C   0  0  0  0  0  0  0  0  0
    0.6966    1.8616    0.0000 O   0  0  0  0  0  0  0  0  0
    1.4111    1.4491    0.0000 C   0  0  0  0  0  0  0  0  0
    2.1256    1.8616    0.0000 C   0  0  0  0  0  0  0  0  0
  1  2  1  0  0  0  0
  1 12  1  0  0  0  0
  2  3  4  0  0  0  0
  2  7  4  0  0  0  0
  3  4  4  0  0  0  0
  4  5  4  0  0  0  0
  4 11  1  0  0  0  0
  5  6  4  0  0  0  0
  6  7  4  0  0  0  0
  7  8  1  0  0  0  0
  8  9  1  0  0  0  0
  9 10  1  0  0  0  0
 12 13  4  0  0  0  0
 12 17  4  0  0  0  0
 13 14  4  0  0  0  0
 14 15  4  0  0  0  0
 15 16  4  0  0  0  0
 16 17  4  0  0  0  0
 17 18  1  0  0  0  0
 18 19  1  0  0  0  0
 19 20  1  0  0  0  0
M  END
>  <Name_Molregno>
433479

>  <Dopamine transporter>
5.62

>  <Norepinephrine transporter>
6.34

>  <Serotonin transporter>
6.66

$$$$
433510
  Marvin  02231216192D 0   1.00000     0.00000     0

 19 20  0  0  0  0  0  0  0  0999 V2000
   -0.3766    1.0176    0.0000 O   0  0  0  0  0  0  0  0  0
   -0.3766    0.1926    0.0000 C   0  0  0  0  0  0  0  0  0
    0.3378   -0.2199    0.0000 C   0  0  0  0  0  0  0  0  0
    0.3378   -1.0449    0.0000 C   0  0  0  0  0  0  0  0  0
   -0.3766   -1.4574    0.0000 N   0  0  0  0  0  0  0  0  0
   -1.0911   -1.0449    0.0000 C   0  0  0  0  0  0  0  0  0
   -1.0911   -0.2199    0.0000 C   0  0  0  0  0  0  0  0  0
   -1.8056    0.1926    0.0000 C   0  0  0  0  0  0  0  0  0
   -2.5200   -0.2199    0.0000 N   0  0  0  0  0  0  0  0  0
   -3.2345    0.1926    0.0000 C   0  0  0  0  0  0  0  0  0
    1.0523   -1.4574    0.0000 C   0  0  0  0  0  0  0  0  0
    0.3378    1.4301    0.0000 C   0  0  0  0  0  0  0  0  0
    0.3378    2.2551    0.0000 C   0  0  0  0  0  0  0  0  0
    1.0523    2.6676    0.0000 C   0  0  0  0  0  0  0  0  0
    1.7668    2.2551    0.0000 C   0  0  0  0  0  0  0  0  0
    1.7668    1.4301    0.0000 C   0  0  0  0  0  0  0  0  0
    1.0523    1.0176    0.0000 C   0  0  0  0  0  0  0  0  0
    1.0523    0.1926    0.0000 O   0  0  0  0  0  0  0  0  0
    1.7668   -0.2199    0.0000 C   0  0  0  0  0  0  0  0  0
  1  2  1  0  0  0  0
  1 12  1  0  0  0  0
  2  3  4  0  0  0  0
  2  7  4  0  0  0  0
  3  4  4  0  0  0  0
  4  5  4  0  0  0  0
  4 11  1  0  0  0  0
  5  6  4  0  0  0  0
  6  7  4  0  0  0  0
  7  8  1  0  0  0  0
  8  9  1  0  0  0  0
  9 10  1  0  0  0  0
 12 13  4  0  0  0  0
 12 17  4  0  0  0  0
 13 14  4  0  0  0  0
 14 15  4  0  0  0  0
 15 16  4  0  0  0  0
 16 17  4  0  0  0  0
 17 18  1  0  0  0  0
 18 19  1  0  0  0  0
M  END
>  <Name_Molregno>
433510

>  <Dopamine transporter>
5.32

>  <Norepinephrine transporter>
6.04

>  <Serotonin transporter>
6.58

$$$$
433512
  Marvin  02231216192D 0   1.00000     0.00000     0

 19 20  0  0  0  0  0  0  0  0999 V2000
   -0.3766    1.0176    0.0000 O   0  0  0  0  0  0  0  0  0
   -0.3766    0.1926    0.0000 C   0  0  0  0  0  0  0  0  0
    0.3378   -0.2199    0.0000 C   0  0  0  0  0  0  0  0  0
    0.3378   -1.0449    0.0000 C   0  0  0  0  0  0  0  0  0
   -0.3766   -1.4574    0.0000 N   0  0  0  0  0  0  0  0  0
   -1.0911   -1.0449    0.0000 C   0  0  0  0  0  0  0  0  0
   -1.0911   -0.2199    0.0000 C   0  0  0  0  0  0  0  0  0
   -1.8056    0.1926    0.0000 C   0  0  0  0  0  0  0  0  0
   -2.5200   -0.2199    0.0000 N   0  0  0  0  0  0  0  0  0
   -3.2345    0.1926    0.0000 C   0  0  0  0  0  0  0  0  0
    1.0523   -1.4574    0.0000 C   0  0  0  0  0  0  0  0  0
    0.3378    1.4301    0.0000 C   0  0  0  0  0  0  0  0  0
    0.3378    2.2551    0.0000 C   0  0  0  0  0  0  0  0  0
    1.0523    2.6676    0.0000 C   0  0  0  0  0  0  0  0  0
    1.7668    2.2551    0.0000 C   0  0  0  0  0  0  0  0  0
    1.7668    1.4301    0.0000 C   0  0  0  0  0  0  0  0  0
    1.0523    1.0176    0.0000 C   0  0  0  0  0  0  0  0  0
    1.0523    0.1926    0.0000 C   0  0  0  0  0  0  0  0  0
    1.7668   -0.2199    0.0000 C   0  0  0  0  0  0  0  0  0
  1  2  1  0  0  0  0
  1 12  1  0  0  0  0
  2  3  4  0  0  0  0
  2  7  4  0  0  0  0
  3  4  4  0  0  0  0
  4  5  4  0  0  0  0
  4 11  1  0  0  0  0
  5  6  4  0  0  0  0
  6  7  4  0  0  0  0
  7  8  1  0  0  0  0
  8  9  1  0  0  0  0
  9 10  1  0  0  0  0
 12 13  4  0  0  0  0
 12 17  4  0  0  0  0
 13 14  4  0  0  0  0
 14 15  4  0  0  0  0
 15 16  4  0  0  0  0
 16 17  4  0  0  0  0
 17 18  1  0  0  0  0
 18 19  1  0  0  0  0
M  END
>  <Name_Molregno>
433512

>  <Dopamine transporter>
5.64

>  <Norepinephrine transporter>
6.44

>  <Serotonin transporter>
6.36

$$$$
433513
  Marvin  02231216192D 0   1.00000     0.00000     0

 20 21  0  0  0  0  0  0  0  0999 V2000
   -0.1072    0.3399    0.0000 O   0  0  0  0  0  0  0  0  0
   -0.1072   -0.4851    0.0000 C   0  0  0  0  0  0  0  0  0
    0.6072   -0.8976    0.0000 C   0  0  0  0  0  0  0  0  0
    0.6072   -1.7226    0.0000 C   0  0  0  0  0  0  0  0  0
   -0.1072   -2.1351    0.0000 N   0  0  0  0  0  0  0  0  0
   -0.8217   -1.7226    0.0000 C   0  0  0  0  0  0  0  0  0
   -0.8217   -0.8976    0.0000 C   0  0  0  0  0  0  0  0  0
   -1.5362   -0.4851    0.0000 C   0  0  0  0  0  0  0  0  0
   -2.2507   -0.8976    0.0000 N   0  0  0  0  0  0  0  0  0
   -2.9651   -0.4851    0.0000 C   0  0  0  0  0  0  0  0  0
   -2.2507   -1.7226    0.0000 C   0  0  0  0  0  0  0  0  0
    1.3217   -2.1351    0.0000 C   0  0  0  0  0  0  0  0  0
    0.6072    0.7524    0.0000 C   0  0  0  0  0  0  0  0  0
    0.6072    1.5774    0.0000 C   0  0  0  0  0  0  0  0  0
    1.3217    1.9899    0.0000 C   0  0  0  0  0  0  0  0  0
    2.0362    1.5774    0.0000 C   0  0  0  0  0  0  0  0  0
    2.0362    0.7524    0.0000 C   0  0  0  0  0  0  0  0  0
    1.3217    0.3399    0.0000 C   0  0  0  0  0  0  0  0  0
    1.3217   -0.4851    0.0000 C   0  0  0  0  0  0  0  0  0
    2.0362   -0.8976    0.0000 C   0  0  0  0  0  0  0  0  0
  1  2  1  0  0  0  0
  1 13  1  0  0  0  0
  2  3  4  0  0  0  0
  2  7  4  0  0  0  0
  3  4  4  0  0  0  0
  4  5  4  0  0  0  0
  4 12  1  0  0  0  0
  5  6  4  0  0  0  0
  6  7  4  0  0  0  0
  7  8  1  0  0  0  0
  8  9  1  0  0  0  0
  9 10  1  0  0  0  0
  9 11  1  0  0  0  0
 13 14  4  0  0  0  0
 13 18  4  0  0  0  0
 14 15  4  0  0  0  0
 15 16  4  0  0  0  0
 16 17  4  0  0  0  0
 17 18  4  0  0  0  0
 18 19  1  0  0  0  0
 19 20  1  0  0  0  0
M  END
>  <Name_Molregno>
433513

>  <Dopamine transporter>
5.58

>  <Norepinephrine transporter>
7.57

>  <Serotonin transporter>
6.55

$$$$
433726
  Marvin  02231216192D 0   1.00000     0.00000     0

 25 27  0  0  0  0  0  0  0  0999 V2000
   -0.0682    0.1778    0.0000 O   0  0  0  0  0  0  0  0  0
   -0.0682   -0.6472    0.0000 C   0  0  0  0  0  0  0  0  0
    0.6463   -1.0597    0.0000 C   0  0  0  0  0  0  0  0  0
    0.6463   -1.8847    0.0000 C   0  0  0  0  0  0  0  0  0
   -0.0682   -2.2972    0.0000 N   0  0  0  0  0  0  0  0  0
   -0.7826   -1.8847    0.0000 C   0  0  0  0  0  0  0  0  0
   -0.7826   -1.0597    0.0000 C   0  0  0  0  0  0  0  0  0
   -1.4971   -0.6472    0.0000 C   0  0  0  0  0  0  0  0  0
   -2.2116   -1.0597    0.0000 N   0  0  0  0  0  0  0  0  0
   -2.9261   -0.6472    0.0000 C   0  0  0  0  0  0  0  0  0
   -2.2116   -1.8847    0.0000 C   0  0  0  0  0  0  0  0  0
    1.3608   -2.2972    0.0000 C   0  0  0  0  0  0  0  0  0
   -0.7826    0.5903    0.0000 C   0  0  0  0  0  0  0  0  0
   -1.4971    0.1778    0.0000 C   0  0  0  0  0  0  0  0  0
   -2.2116    0.5903    0.0000 C   0  0  0  0  0  0  0  0  0
   -2.2116    1.4153    0.0000 C   0  0  0  0  0  0  0  0  0
   -1.4971    1.8278    0.0000 C   0  0  0  0  0  0  0  0  0
   -0.7826    1.4153    0.0000 C   0  0  0  0  0  0  0  0  0
   -0.0682    1.8278    0.0000 O   0  0  0  0  0  0  0  0  0
    0.6463    1.4153    0.0000 C   0  0  0  0  0  0  0  0  0
    1.3608    1.8278    0.0000 C   0  0  0  0  0  0  0  0  0
    2.0752    1.4153    0.0000 C   0  0  0  0  0  0  0  0  0
    2.0752    0.5903    0.0000 C   0  0  0  0  0  0  0  0  0
    1.3608    0.1778    0.0000 C   0  0  0  0  0  0  0  0  0
    0.6463    0.5903    0.0000 C   0  0  0  0  0  0  0  0  0
  1  2  1  0  0  0  0
  1 13  1  0  0  0  0
  2  3  4  0  0  0  0
  2  7  4  0  0  0  0
  3  4  4  0  0  0  0
  4  5  4  0  0  0  0
  4 12  1  0  0  0  0
  5  6  4  0  0  0  0
  6  7  4  0  0  0  0
  7  8  1  0  0  0  0
  8  9  1  0  0  0  0
  9 10  1  0  0  0  0
  9 11  1  0  0  0  0
 13 14  4  0  0  0  0
 13 18  4  0  0  0  0
 14 15  4  0  0  0  0
 15 16  4  0  0  0  0
 16 17  4  0  0  0  0
 17 18  4  0  0  0  0
 18 19  1  0  0  0  0
 19 20  1  0  0  0  0
 20 21  4  0  0  0  0
 20 25  4  0  0  0  0
 21 22  4  0  0  0  0
 22 23  4  0  0  0  0
 23 24  4  0  0  0  0
 24 25  4  0  0  0  0
M  END
>  <Name_Molregno>
433726

>  <Dopamine transporter>
5.58

>  <Norepinephrine transporter>
8

>  <Serotonin transporter>
5.39

$$$$
433759
  Marvin  02231216192D 0   1.00000     0.00000     0

 24 26  0  0  0  0  0  0  0  0999 V2000
   -0.2439    0.0104    0.0000 O   0  0  0  0  0  0  0  0  0
   -0.2439   -0.8146    0.0000 C   0  0  0  0  0  0  0  0  0
    0.4706   -1.2271    0.0000 C   0  0  0  0  0  0  0  0  0
    0.4706   -2.0521    0.0000 C   0  0  0  0  0  0  0  0  0
   -0.2439   -2.4646    0.0000 N   0  0  0  0  0  0  0  0  0
   -0.9584   -2.0521    0.0000 C   0  0  0  0  0  0  0  0  0
   -0.9584   -1.2271    0.0000 C   0  0  0  0  0  0  0  0  0
   -1.6728   -0.8146    0.0000 C   0  0  0  0  0  0  0  0  0
   -2.3873   -1.2271    0.0000 N   0  0  0  0  0  0  0  0  0
   -3.1018   -0.8146    0.0000 C   0  0  0  0  0  0  0  0  0
    1.1851   -2.4646    0.0000 C   0  0  0  0  0  0  0  0  0
   -0.9584    0.4229    0.0000 C   0  0  0  0  0  0  0  0  0
   -1.6728    0.0104    0.0000 C   0  0  0  0  0  0  0  0  0
   -2.3873    0.4229    0.0000 C   0  0  0  0  0  0  0  0  0
   -2.3873    1.2479    0.0000 C   0  0  0  0  0  0  0  0  0
   -1.6728    1.6604    0.0000 C   0  0  0  0  0  0  0  0  0
   -0.9584    1.2479    0.0000 C   0  0  0  0  0  0  0  0  0
   -0.2439    1.6604    0.0000 O   0  0  0  0  0  0  0  0  0
    0.4706    1.2479    0.0000 C   0  0  0  0  0  0  0  0  0
    1.1851    1.6604    0.0000 C   0  0  0  0  0  0  0  0  0
    1.8995    1.2479    0.0000 C   0  0  0  0  0  0  0  0  0
    1.8995    0.4229    0.0000 C   0  0  0  0  0  0  0  0  0
    1.1851    0.0104    0.0000 C   0  0  0  0  0  0  0  0  0
    0.4706    0.4229    0.0000 C   0  0  0  0  0  0  0  0  0
  1  2  1  0  0  0  0
  1 12  1  0  0  0  0
  2  3  4  0  0  0  0
  2  7  4  0  0  0  0
  3  4  4  0  0  0  0
  4  5  4  0  0  0  0
  4 11  1  0  0  0  0
  5  6  4  0  0  0  0
  6  7  4  0  0  0  0
  7  8  1  0  0  0  0
  8  9  1  0  0  0  0
  9 10  1  0  0  0  0
 12 13  4  0  0  0  0
 12 17  4  0  0  0  0
 13 14  4  0  0  0  0
 14 15  4  0  0  0  0
 15 16  4  0  0  0  0
 16 17  4  0  0  0  0
 17 18  1  0  0  0  0
 18 19  1  0  0  0  0
 19 20  4  0  0  0  0
 19 24  4  0  0  0  0
 20 21  4  0  0  0  0
 21 22  4  0  0  0  0
 22 23  4  0  0  0  0
 23 24  4  0  0  0  0
M  END
>  <Name_Molregno>
433759

>  <Dopamine transporter>
5.72

>  <Norepinephrine transporter>
8

>  <Serotonin transporter>
6.08

$$$$
433799
  Marvin  02231216192D 0   1.00000     0.00000     0

 21 22  0  0  0  0  0  0  0  0999 V2000
    0.8952    0.3401    0.0000 O   0  0  0  0  0  0  0  0  0
    0.8952   -0.4849    0.0000 C   0  0  0  0  0  0  0  0  0
    1.6096   -0.8974    0.0000 C   0  0  0  0  0  0  0  0  0
    1.6096   -1.7224    0.0000 C   0  0  0  0  0  0  0  0  0
    0.8952   -2.1349    0.0000 N   0  0  0  0  0  0  0  0  0
    0.1807   -1.7224    0.0000 C   0  0  0  0  0  0  0  0  0
    0.1807   -0.8974    0.0000 C   0  0  0  0  0  0  0  0  0
   -0.5338   -0.4849    0.0000 C   0  0  0  0  0  0  0  0  0
   -1.2483   -0.8974    0.0000 N   0  0  0  0  0  0  0  0  0
   -1.2483   -1.7224    0.0000 C   0  0  0  0  0  0  0  0  0
   -1.9627   -0.4849    0.0000 C   0  0  0  0  0  0  0  0  0
    2.3241   -2.1349    0.0000 C   0  0  0  0  0  0  0  0  0
    0.1807    0.7526    0.0000 C   0  0  0  0  0  0  0  0  0
   -0.5338    0.3401    0.0000 C   0  0  0  0  0  0  0  0  0
   -1.2483    0.7526    0.0000 C   0  0  0  0  0  0  0  0  0
   -1.2483    1.5776    0.0000 C   0  0  0  0  0  0  0  0  0
   -0.5338    1.9901    0.0000 C   0  0  0  0  0  0  0  0  0
    0.1807    1.5776    0.0000 C   0  0  0  0  0  0  0  0  0
    0.8952    1.9901    0.0000 C   0  0  0  0  0  0  0  0  0
    1.6096    1.5776    0.0000 C   0  0  0  0  0  0  0  0  0
    2.3241    1.9901    0.0000 C   0  0  0  0  0  0  0  0  0
  1  2  1  0  0  0  0
  1 13  1  0  0  0  0
  2  3  4  0  0  0  0
  2  7  4  0  0  0  0
  3  4  4  0  0  0  0
  4  5  4  0  0  0  0
  4 12  1  0  0  0  0
  5  6  4  0  0  0  0
  6  7  4  0  0  0  0
  7  8  1  0  0  0  0
  8  9  1  0  0  0  0
  9 10  1  0  0  0  0
  9 11  1  0  0  0  0
 13 14  4  0  0  0  0
 13 18  4  0  0  0  0
 14 15  4  0  0  0  0
 15 16  4  0  0  0  0
 16 17  4  0  0  0  0
 17 18  4  0  0  0  0
 18 19  1  0  0  0  0
 19 20  1  0  0  0  0
 20 21  1  0  0  0  0
M  END
>  <Name_Molregno>
433799

>  <Dopamine transporter>
5.65

>  <Norepinephrine transporter>
6.8

>  <Serotonin transporter>
5.55

$$$$
433802
  Marvin  02231216192D 0   1.00000     0.00000     0

 20 21  0  0  0  0  0  0  0  0999 V2000
    0.6966    0.2116    0.0000 O   0  0  0  0  0  0  0  0  0
    0.6966   -0.6134    0.0000 C   0  0  0  0  0  0  0  0  0
    1.4111   -1.0259    0.0000 C   0  0  0  0  0  0  0  0  0
    1.4111   -1.8509    0.0000 C   0  0  0  0  0  0  0  0  0
    0.6966   -2.2634    0.0000 N   0  0  0  0  0  0  0  0  0
   -0.0178   -1.8509    0.0000 C   0  0  0  0  0  0  0  0  0
   -0.0178   -1.0259    0.0000 C   0  0  0  0  0  0  0  0  0
   -0.7323   -0.6134    0.0000 C   0  0  0  0  0  0  0  0  0
   -1.4468   -1.0259    0.0000 N   0  0  0  0  0  0  0  0  0
   -1.4468   -1.8509    0.0000 C   0  0  0  0  0  0  0  0  0
    2.1256   -2.2634    0.0000 C   0  0  0  0  0  0  0  0  0
   -0.0178    0.6241    0.0000 C   0  0  0  0  0  0  0  0  0
   -0.7323    0.2116    0.0000 C   0  0  0  0  0  0  0  0  0
   -1.4468    0.6241    0.0000 C   0  0  0  0  0  0  0  0  0
   -1.4468    1.4491    0.0000 C   0  0  0  0  0  0  0  0  0
   -0.7323    1.8616    0.0000 C   0  0  0  0  0  0  0  0  0
   -0.0178    1.4491    0.0000 C   0  0  0  0  0  0  0  0  0
    0.6966    1.8616    0.0000 C   0  0  0  0  0  0  0  0  0
    1.4111    1.4491    0.0000 C   0  0  0  0  0  0  0  0  0
    2.1256    1.8616    0.0000 C   0  0  0  0  0  0  0  0  0
  1  2  1  0  0  0  0
  1 12  1  0  0  0  0
  2  3  4  0  0  0  0
  2  7  4  0  0  0  0
  3  4  4  0  0  0  0
  4  5  4  0  0  0  0
  4 11  1  0  0  0  0
  5  6  4  0  0  0  0
  6  7  4  0  0  0  0
  7  8  1  0  0  0  0
  8  9  1  0  0  0  0
  9 10  1  0  0  0  0
 12 13  4  0  0  0  0
 12 17  4  0  0  0  0
 13 14  4  0  0  0  0
 14 15  4  0  0  0  0
 15 16  4  0  0  0  0
 16 17  4  0  0  0  0
 17 18  1  0  0  0  0
 18 19  1  0  0  0  0
 19 20  1  0  0  0  0
M  END
>  <Name_Molregno>
433802

>  <Dopamine transporter>
5.7

>  <Norepinephrine transporter>
6.36

>  <Serotonin transporter>
6.09

$$$$
433804
  Marvin  02231216192D 0   1.00000     0.00000     0

 21 22  0  0  0  0  0  0  0  0999 V2000
    0.1670    0.0352    0.0000 O   0  0  0  0  0  0  0  0  0
    0.1670   -0.7898    0.0000 C   0  0  0  0  0  0  0  0  0
   -0.5475   -1.2023    0.0000 C   0  0  0  0  0  0  0  0  0
   -0.5475   -2.0273    0.0000 C   0  0  0  0  0  0  0  0  0
    0.1670   -2.4398    0.0000 N   0  0  0  0  0  0  0  0  0
    0.8815   -2.0273    0.0000 C   0  0  0  0  0  0  0  0  0
    0.8815   -1.2023    0.0000 C   0  0  0  0  0  0  0  0  0
    1.5959   -0.7898    0.0000 C   0  0  0  0  0  0  0  0  0
    2.3104   -1.2023    0.0000 N   0  0  0  0  0  0  0  0  0
    3.0249   -0.7898    0.0000 C   0  0  0  0  0  0  0  0  0
    2.3104   -2.0273    0.0000 C   0  0  0  0  0  0  0  0  0
   -1.2620   -2.4398    0.0000 C   0  0  0  0  0  0  0  0  0
   -0.5475    0.4477    0.0000 C   0  0  0  0  0  0  0  0  0
   -1.2620    0.0352    0.0000 C   0  0  0  0  0  0  0  0  0
   -1.9764    0.4477    0.0000 C   0  0  0  0  0  0  0  0  0
   -1.9764    1.2727    0.0000 C   0  0  0  0  0  0  0  0  0
   -1.2620    1.6852    0.0000 C   0  0  0  0  0  0  0  0  0
   -0.5475    1.2727    0.0000 C   0  0  0  0  0  0  0  0  0
    0.1670    1.6852    0.0000 C   0  0  0  0  0  0  0  0  0
    0.1670    2.5102    0.0000 C   0  0  0  0  0  0  0  0  0
    0.8815    1.2727    0.0000 C   0  0  0  0  0  0  0  0  0
  1  2  1  0  0  0  0
  1 13  1  0  0  0  0
  2  3  4  0  0  0  0
  2  7  4  0  0  0  0
  3  4  4  0  0  0  0
  4  5  4  0  0  0  0
  4 12  1  0  0  0  0
  5  6  4  0  0  0  0
  6  7  4  0  0  0  0
  7  8  1  0  0  0  0
  8  9  1  0  0  0  0
  9 10  1  0  0  0  0
  9 11  1  0  0  0  0
 13 14  4  0  0  0  0
 13 18  4  0  0  0  0
 14 15  4  0  0  0  0
 15 16  4  0  0  0  0
 16 17  4  0  0  0  0
 17 18  4  0  0  0  0
 18 19  1  0  0  0  0
 19 20  1  0  0  0  0
 19 21  1  0  0  0  0
M  END
>  <Name_Molregno>
433804

>  <Dopamine transporter>
5.54

>  <Norepinephrine transporter>
7.89

>  <Serotonin transporter>
5.83

$$$$
433834
  Marvin  02231216192D 0   1.00000     0.00000     0

 19 20  0  0  0  0  0  0  0  0999 V2000
    2.5919   -0.7335    0.0000 Cl  0  0  0  0  0  0  0  0  0
    2.5919   -1.5585    0.0000 C   0  0  0  0  0  0  0  0  0
    3.3064   -1.9710    0.0000 C   0  0  0  0  0  0  0  0  0
    3.3064   -2.7960    0.0000 C   0  0  0  0  0  0  0  0  0
    2.5919   -3.2085    0.0000 C   0  0  0  0  0  0  0  0  0
    1.8774   -2.7960    0.0000 C   0  0  0  0  0  0  0  0  0
    1.8774   -1.9710    0.0000 C   0  0  0  0  0  0  0  0  0
    1.1630   -1.5585    0.0000 O   0  0  0  0  0  0  0  0  0
    0.4485   -1.9710    0.0000 C   0  0  0  0  0  0  0  0  0
    0.4485   -2.7960    0.0000 C   0  0  0  0  0  0  0  0  0
   -0.2660   -3.2085    0.0000 C   0  0  0  0  0  0  0  0  0
   -0.9804   -2.7960    0.0000 N   0  0  0  0  0  0  0  0  0
   -0.9804   -1.9710    0.0000 C   0  0  0  0  0  0  0  0  0
   -0.2660   -1.5585    0.0000 C   0  0  0  0  0  0  0  0  0
   -0.2660   -0.7335    0.0000 C   0  0  0  0  0  0  0  0  0
    0.4485   -0.3210    0.0000 N   0  0  0  0  0  0  0  0  0
    0.4485    0.5040    0.0000 C   0  0  0  0  0  0  0  0  0
    1.1630   -0.7335    0.0000 C   0  0  0  0  0  0  0  0  0
   -0.2660   -4.0335    0.0000 C   0  0  0  0  0  0  0  0  0
  1  2  1  0  0  0  0
  2  3  4  0  0  0  0
  2  7  4  0  0  0  0
  3  4  4  0  0  0  0
  4  5  4  0  0  0  0
  5  6  4  0  0  0  0
  6  7  4  0  0  0  0
  7  8  1  0  0  0  0
  8  9  1  0  0  0  0
  9 10  4  0  0  0  0
  9 14  4  0  0  0  0
 10 11  4  0  0  0  0
 11 12  4  0  0  0  0
 11 19  1  0  0  0  0
 12 13  4  0  0  0  0
 13 14  4  0  0  0  0
 14 15  1  0  0  0  0
 15 16  1  0  0  0  0
 16 17  1  0  0  0  0
 16 18  1  0  0  0  0
M  END
>  <Name_Molregno>
433834

>  <Dopamine transporter>
5.94

>  <Norepinephrine transporter>
6.88

>  <Serotonin transporter>
6.62

$$$$
433836
  Marvin  02231216192D 0   1.00000     0.00000     0

 20 21  0  0  0  0  0  0  0  0999 V2000
    0.1433   -0.0308    0.0000 O   0  0  0  0  0  0  0  0  0
    0.1433   -0.8558    0.0000 C   0  0  0  0  0  0  0  0  0
   -0.5711   -1.2683    0.0000 C   0  0  0  0  0  0  0  0  0
   -0.5711   -2.0933    0.0000 C   0  0  0  0  0  0  0  0  0
    0.1433   -2.5058    0.0000 N   0  0  0  0  0  0  0  0  0
    0.8578   -2.0933    0.0000 C   0  0  0  0  0  0  0  0  0
    0.8578   -1.2683    0.0000 C   0  0  0  0  0  0  0  0  0
    1.5723   -0.8558    0.0000 C   0  0  0  0  0  0  0  0  0
    2.2868   -1.2683    0.0000 N   0  0  0  0  0  0  0  0  0
    3.0012   -0.8558    0.0000 C   0  0  0  0  0  0  0  0  0
   -1.2856   -2.5058    0.0000 C   0  0  0  0  0  0  0  0  0
   -0.5711    0.3817    0.0000 C   0  0  0  0  0  0  0  0  0
   -1.2856   -0.0308    0.0000 C   0  0  0  0  0  0  0  0  0
   -2.0001    0.3817    0.0000 C   0  0  0  0  0  0  0  0  0
   -2.0001    1.2067    0.0000 C   0  0  0  0  0  0  0  0  0
   -1.2856    1.6192    0.0000 C   0  0  0  0  0  0  0  0  0
   -0.5711    1.2067    0.0000 C   0  0  0  0  0  0  0  0  0
    0.1433    1.6192    0.0000 C   0  0  0  0  0  0  0  0  0
    0.1433    2.4442    0.0000 C   0  0  0  0  0  0  0  0  0
    0.8578    1.2067    0.0000 C   0  0  0  0  0  0  0  0  0
  1  2  1  0  0  0  0
  1 12  1  0  0  0  0
  2  3  4  0  0  0  0
  2  7  4  0  0  0  0
  3  4  4  0  0  0  0
  4  5  4  0  0  0  0
  4 11  1  0  0  0  0
  5  6  4  0  0  0  0
  6  7  4  0  0  0  0
  7  8  1  0  0  0  0
  8  9  1  0  0  0  0
  9 10  1  0  0  0  0
 12 13  4  0  0  0  0
 12 17  4  0  0  0  0
 13 14  4  0  0  0  0
 14 15  4  0  0  0  0
 15 16  4  0  0  0  0
 16 17  4  0  0  0  0
 17 18  1  0  0  0  0
 18 19  1  0  0  0  0
 18 20  1  0  0  0  0
M  END
>  <Name_Molregno>
433836

>  <Dopamine transporter>
5.67

>  <Norepinephrine transporter>
7.09

>  <Serotonin transporter>
5.7

$$$$
433867
  Marvin  02231216192D 0   1.00000     0.00000     0

 18 19  0  0  0  0  0  0  0  0999 V2000
    2.4418   -0.6643    0.0000 Cl  0  0  0  0  0  0  0  0  0
    2.4418   -1.4893    0.0000 C   0  0  0  0  0  0  0  0  0
    3.1562   -1.9018    0.0000 C   0  0  0  0  0  0  0  0  0
    3.1562   -2.7268    0.0000 C   0  0  0  0  0  0  0  0  0
    2.4418   -3.1393    0.0000 C   0  0  0  0  0  0  0  0  0
    1.7273   -2.7268    0.0000 C   0  0  0  0  0  0  0  0  0
    1.7273   -1.9018    0.0000 C   0  0  0  0  0  0  0  0  0
    1.0128   -1.4893    0.0000 O   0  0  0  0  0  0  0  0  0
    0.2983   -1.9018    0.0000 C   0  0  0  0  0  0  0  0  0
    0.2983   -2.7268    0.0000 C   0  0  0  0  0  0  0  0  0
   -0.4161   -3.1393    0.0000 C   0  0  0  0  0  0  0  0  0
   -1.1306   -2.7268    0.0000 N   0  0  0  0  0  0  0  0  0
   -1.1306   -1.9018    0.0000 C   0  0  0  0  0  0  0  0  0
   -0.4161   -1.4893    0.0000 C   0  0  0  0  0  0  0  0  0
   -0.4161   -0.6643    0.0000 C   0  0  0  0  0  0  0  0  0
    0.2983   -0.2518    0.0000 N   0  0  0  0  0  0  0  0  0
    0.2983    0.5732    0.0000 C   0  0  0  0  0  0  0  0  0
   -0.4161   -3.9643    0.0000 C   0  0  0  0  0  0  0  0  0
  1  2  1  0  0  0  0
  2  3  4  0  0  0  0
  2  7  4  0  0  0  0
  3  4  4  0  0  0  0
  4  5  4  0  0  0  0
  5  6  4  0  0  0  0
  6  7  4  0  0  0  0
  7  8  1  0  0  0  0
  8  9  1  0  0  0  0
  9 10  4  0  0  0  0
  9 14  4  0  0  0  0
 10 11  4  0  0  0  0
 11 12  4  0  0  0  0
 11 18  1  0  0  0  0
 12 13  4  0  0  0  0
 13 14  4  0  0  0  0
 14 15  1  0  0  0  0
 15 16  1  0  0  0  0
 16 17  1  0  0  0  0
M  END
>  <Name_Molregno>
433867

>  <Dopamine transporter>
6.08

>  <Norepinephrine transporter>
6.59

>  <Serotonin transporter>
7.06

$$$$
433868
  Marvin  02231216192D 0   1.00000     0.00000     0

 20 21  0  0  0  0  0  0  0  0999 V2000
    0.5103    2.8622    0.0000 S   0  0  0  0  0  0  0  0  0
    1.2248    3.2747    0.0000 C   0  0  0  0  0  0  0  0  0
    0.5103    2.0372    0.0000 C   0  0  0  0  0  0  0  0  0
    1.2248    1.6247    0.0000 C   0  0  0  0  0  0  0  0  0
    1.2248    0.7997    0.0000 C   0  0  0  0  0  0  0  0  0
    0.5103    0.3872    0.0000 C   0  0  0  0  0  0  0  0  0
   -0.2042    0.7997    0.0000 C   0  0  0  0  0  0  0  0  0
   -0.2042    1.6247    0.0000 C   0  0  0  0  0  0  0  0  0
   -0.9186    2.0372    0.0000 O   0  0  0  0  0  0  0  0  0
   -1.6331    1.6247    0.0000 C   0  0  0  0  0  0  0  0  0
   -1.6331    0.7997    0.0000 C   0  0  0  0  0  0  0  0  0
   -2.3476    0.3872    0.0000 C   0  0  0  0  0  0  0  0  0
   -3.0620    0.7997    0.0000 N   0  0  0  0  0  0  0  0  0
   -3.0620    1.6247    0.0000 C   0  0  0  0  0  0  0  0  0
   -2.3476    2.0372    0.0000 C   0  0  0  0  0  0  0  0  0
   -2.3476    2.8622    0.0000 C   0  0  0  0  0  0  0  0  0
   -1.6331    3.2747    0.0000 N   0  0  0  0  0  0  0  0  0
   -1.6331    4.0997    0.0000 C   0  0  0  0  0  0  0  0  0
   -0.9186    2.8622    0.0000 C   0  0  0  0  0  0  0  0  0
   -2.3476   -0.4378    0.0000 C   0  0  0  0  0  0  0  0  0
  1  2  1  0  0  0  0
  1  3  1  0  0  0  0
  3  4  4  0  0  0  0
  3  8  4  0  0  0  0
  4  5  4  0  0  0  0
  5  6  4  0  0  0  0
  6  7  4  0  0  0  0
  7  8  4  0  0  0  0
  8  9  1  0  0  0  0
  9 10  1  0  0  0  0
 10 11  4  0  0  0  0
 10 15  4  0  0  0  0
 11 12  4  0  0  0  0
 12 13  4  0  0  0  0
 12 20  1  0  0  0  0
 13 14  4  0  0  0  0
 14 15  4  0  0  0  0
 15 16  1  0  0  0  0
 16 17  1  0  0  0  0
 17 18  1  0  0  0  0
 17 19  1  0  0  0  0
M  END
>  <Name_Molregno>
433868

>  <Dopamine transporter>
5.71

>  <Norepinephrine transporter>
7.24

>  <Serotonin transporter>
6.42

$$$$
433895
  Marvin  02231216192D 0   1.00000     0.00000     0

 19 20  0  0  0  0  0  0  0  0999 V2000
    0.6658    2.9101    0.0000 S   0  0  0  0  0  0  0  0  0
    1.3803    3.3226    0.0000 C   0  0  0  0  0  0  0  0  0
    0.6658    2.0851    0.0000 C   0  0  0  0  0  0  0  0  0
    1.3803    1.6726    0.0000 C   0  0  0  0  0  0  0  0  0
    1.3803    0.8476    0.0000 C   0  0  0  0  0  0  0  0  0
    0.6658    0.4351    0.0000 C   0  0  0  0  0  0  0  0  0
   -0.0486    0.8476    0.0000 C   0  0  0  0  0  0  0  0  0
   -0.0486    1.6726    0.0000 C   0  0  0  0  0  0  0  0  0
   -0.7631    2.0851    0.0000 O   0  0  0  0  0  0  0  0  0
   -1.4776    1.6726    0.0000 C   0  0  0  0  0  0  0  0  0
   -1.4776    0.8476    0.0000 C   0  0  0  0  0  0  0  0  0
   -2.1921    0.4351    0.0000 C   0  0  0  0  0  0  0  0  0
   -2.9065    0.8476    0.0000 N   0  0  0  0  0  0  0  0  0
   -2.9065    1.6726    0.0000 C   0  0  0  0  0  0  0  0  0
   -2.1921    2.0851    0.0000 C   0  0  0  0  0  0  0  0  0
   -2.1921    2.9101    0.0000 C   0  0  0  0  0  0  0  0  0
   -1.4776    3.3226    0.0000 N   0  0  0  0  0  0  0  0  0
   -1.4776    4.1476    0.0000 C   0  0  0  0  0  0  0  0  0
   -2.1921   -0.3899    0.0000 C   0  0  0  0  0  0  0  0  0
  1  2  1  0  0  0  0
  1  3  1  0  0  0  0
  3  4  4  0  0  0  0
  3  8  4  0  0  0  0
  4  5  4  0  0  0  0
  5  6  4  0  0  0  0
  6  7  4  0  0  0  0
  7  8  4  0  0  0  0
  8  9  1  0  0  0  0
  9 10  1  0  0  0  0
 10 11  4  0  0  0  0
 10 15  4  0  0  0  0
 11 12  4  0  0  0  0
 12 13  4  0  0  0  0
 12 19  1  0  0  0  0
 13 14  4  0  0  0  0
 14 15  4  0  0  0  0
 15 16  1  0  0  0  0
 16 17  1  0  0  0  0
 17 18  1  0  0  0  0
M  END
>  <Name_Molregno>
433895

>  <Dopamine transporter>
5.76

>  <Norepinephrine transporter>
6.63

>  <Serotonin transporter>
6.88

$$$$
433897
  Marvin  02231216192D 0   1.00000     0.00000     0

 19 20  0  0  0  0  0  0  0  0999 V2000
   -0.3612    0.1817    0.0000 O   0  0  0  0  0  0  0  0  0
   -0.3612   -0.6433    0.0000 C   0  0  0  0  0  0  0  0  0
    0.3533   -1.0558    0.0000 C   0  0  0  0  0  0  0  0  0
    0.3533   -1.8808    0.0000 C   0  0  0  0  0  0  0  0  0
   -0.3612   -2.2933    0.0000 N   0  0  0  0  0  0  0  0  0
   -1.0757   -1.8808    0.0000 C   0  0  0  0  0  0  0  0  0
   -1.0757   -1.0558    0.0000 C   0  0  0  0  0  0  0  0  0
   -1.7901   -0.6433    0.0000 C   0  0  0  0  0  0  0  0  0
   -2.5046   -1.0558    0.0000 N   0  0  0  0  0  0  0  0  0
   -3.2191   -0.6433    0.0000 C   0  0  0  0  0  0  0  0  0
   -2.5046   -1.8808    0.0000 C   0  0  0  0  0  0  0  0  0
    1.0677   -2.2933    0.0000 C   0  0  0  0  0  0  0  0  0
    0.3533    0.5942    0.0000 C   0  0  0  0  0  0  0  0  0
    0.3533    1.4192    0.0000 C   0  0  0  0  0  0  0  0  0
    1.0677    1.8317    0.0000 C   0  0  0  0  0  0  0  0  0
    1.7822    1.4192    0.0000 C   0  0  0  0  0  0  0  0  0
    1.7822    0.5942    0.0000 C   0  0  0  0  0  0  0  0  0
    1.0677    0.1817    0.0000 C   0  0  0  0  0  0  0  0  0
    1.0677   -0.6433    0.0000 C   0  0  0  0  0  0  0  0  0
  1  2  1  0  0  0  0
  1 13  1  0  0  0  0
  2  3  4  0  0  0  0
  2  7  4  0  0  0  0
  3  4  4  0  0  0  0
  4  5  4  0  0  0  0
  4 12  1  0  0  0  0
  5  6  4  0  0  0  0
  6  7  4  0  0  0  0
  7  8  1  0  0  0  0
  8  9  1  0  0  0  0
  9 10  1  0  0  0  0
  9 11  1  0  0  0  0
 13 14  4  0  0  0  0
 13 18  4  0  0  0  0
 14 15  4  0  0  0  0
 15 16  4  0  0  0  0
 16 17  4  0  0  0  0
 17 18  4  0  0  0  0
 18 19  1  0  0  0  0
M  END
>  <Name_Molregno>
433897

>  <Dopamine transporter>
5.85

>  <Norepinephrine transporter>
6.71

>  <Serotonin transporter>
6.63

$$$$
433927
  Marvin  02231216192D 0   1.00000     0.00000     0

 18 19  0  0  0  0  0  0  0  0999 V2000
   -0.3404    0.1157    0.0000 O   0  0  0  0  0  0  0  0  0
   -0.3404   -0.7093    0.0000 C   0  0  0  0  0  0  0  0  0
    0.3740   -1.1218    0.0000 C   0  0  0  0  0  0  0  0  0
    0.3740   -1.9468    0.0000 C   0  0  0  0  0  0  0  0  0
   -0.3404   -2.3593    0.0000 N   0  0  0  0  0  0  0  0  0
   -1.0549   -1.9468    0.0000 C   0  0  0  0  0  0  0  0  0
   -1.0549   -1.1218    0.0000 C   0  0  0  0  0  0  0  0  0
   -1.7694   -0.7093    0.0000 C   0  0  0  0  0  0  0  0  0
   -2.4839   -1.1218    0.0000 N   0  0  0  0  0  0  0  0  0
   -3.1983   -0.7093    0.0000 C   0  0  0  0  0  0  0  0  0
    1.0885   -2.3593    0.0000 C   0  0  0  0  0  0  0  0  0
    0.3740    0.5282    0.0000 C   0  0  0  0  0  0  0  0  0
    0.3740    1.3532    0.0000 C   0  0  0  0  0  0  0  0  0
    1.0885    1.7657    0.0000 C   0  0  0  0  0  0  0  0  0
    1.8030    1.3532    0.0000 C   0  0  0  0  0  0  0  0  0
    1.8030    0.5282    0.0000 C   0  0  0  0  0  0  0  0  0
    1.0885    0.1157    0.0000 C   0  0  0  0  0  0  0  0  0
    1.0885   -0.7093    0.0000 C   0  0  0  0  0  0  0  0  0
  1  2  1  0  0  0  0
  1 12  1  0  0  0  0
  2  3  4  0  0  0  0
  2  7  4  0  0  0  0
  3  4  4  0  0  0  0
  4  5  4  0  0  0  0
  4 11  1  0  0  0  0
  5  6  4  0  0  0  0
  6  7  4  0  0  0  0
  7  8  1  0  0  0  0
  8  9  1  0  0  0  0
  9 10  1  0  0  0  0
 12 13  4  0  0  0  0
 12 17  4  0  0  0  0
 13 14  4  0  0  0  0
 14 15  4  0  0  0  0
 15 16  4  0  0  0  0
 16 17  4  0  0  0  0
 17 18  1  0  0  0  0
M  END
>  <Name_Molregno>
433927

>  <Dopamine transporter>
5.82

>  <Norepinephrine transporter>
6.02

>  <Serotonin transporter>
6.87

$$$$
433955
  Marvin  02231216192D 0   1.00000     0.00000     0

 21 22  0  0  0  0  0  0  0  0999 V2000
    0.8952    0.3401    0.0000 O   0  0  0  0  0  0  0  0  0
    0.8952   -0.4849    0.0000 C   0  0  0  0  0  0  0  0  0
    1.6096   -0.8974    0.0000 C   0  0  0  0  0  0  0  0  0
    1.6096   -1.7224    0.0000 C   0  0  0  0  0  0  0  0  0
    0.8952   -2.1349    0.0000 N   0  0  0  0  0  0  0  0  0
    0.1807   -1.7224    0.0000 C   0  0  0  0  0  0  0  0  0
    0.1807   -0.8974    0.0000 C   0  0  0  0  0  0  0  0  0
   -0.5338   -0.4849    0.0000 C   0  0  0  0  0  0  0  0  0
   -1.2483   -0.8974    0.0000 N   0  0  0  0  0  0  0  0  0
   -1.2483   -1.7224    0.0000 C   0  0  0  0  0  0  0  0  0
   -1.9627   -0.4849    0.0000 C   0  0  0  0  0  0  0  0  0
    2.3241   -2.1349    0.0000 C   0  0  0  0  0  0  0  0  0
    0.1807    0.7526    0.0000 C   0  0  0  0  0  0  0  0  0
   -0.5338    0.3401    0.0000 C   0  0  0  0  0  0  0  0  0
   -1.2483    0.7526    0.0000 C   0  0  0  0  0  0  0  0  0
   -1.2483    1.5776    0.0000 C   0  0  0  0  0  0  0  0  0
   -0.5338    1.9901    0.0000 C   0  0  0  0  0  0  0  0  0
    0.1807    1.5776    0.0000 C   0  0  0  0  0  0  0  0  0
    0.8952    1.9901    0.0000 O   0  0  0  0  0  0  0  0  0
    1.6096    1.5776    0.0000 C   0  0  0  0  0  0  0  0  0
    2.3241    1.9901    0.0000 C   0  0  0  0  0  0  0  0  0
  1  2  1  0  0  0  0
  1 13  1  0  0  0  0
  2  3  4  0  0  0  0
  2  7  4  0  0  0  0
  3  4  4  0  0  0  0
  4  5  4  0  0  0  0
  4 12  1  0  0  0  0
  5  6  4  0  0  0  0
  6  7  4  0  0  0  0
  7  8  1  0  0  0  0
  8  9  1  0  0  0  0
  9 10  1  0  0  0  0
  9 11  1  0  0  0  0
 13 14  4  0  0  0  0
 13 18  4  0  0  0  0
 14 15  4  0  0  0  0
 15 16  4  0  0  0  0
 16 17  4  0  0  0  0
 17 18  4  0  0  0  0
 18 19  1  0  0  0  0
 19 20  1  0  0  0  0
 20 21  1  0  0  0  0
M  END
>  <Name_Molregno>
433955

>  <Dopamine transporter>
5.67

>  <Norepinephrine transporter>
6.75

>  <Serotonin transporter>
5.32

$$$$
437760
  Marvin  02231216192D 0   1.00000     0.00000     0

 30 33  0  0  0  0  0  0  0  0999 V2000
    0.0636   -0.3212    0.0000 Cl  0  0  0  0  0  0  0  0  0
    0.8863   -0.3828    0.0000 C   0  0  0  0  0  0  0  0  0
    1.3510    0.2988    0.0000 C   0  0  0  0  0  0  0  0  0
    2.1737    0.2372    0.0000 C   0  0  0  0  0  0  0  0  0
    2.6385    0.9188    0.0000 O   0  0  0  0  0  0  0  0  0
    3.4612    0.8572    0.0000 C   0  0  0  0  0  0  0  0  0
    3.9259    1.5388    0.0000 C   0  0  0  0  0  0  0  0  0
    4.7486    1.4772    0.0000 C   0  0  0  0  0  0  0  0  0
    5.1065    0.7339    0.0000 C   0  0  0  0  0  0  0  0  0
    4.6418    0.0522    0.0000 C   0  0  0  0  0  0  0  0  0
    3.8191    0.1139    0.0000 C   0  0  0  0  0  0  0  0  0
    3.3544   -0.5678    0.0000 C   0  0  0  0  0  0  0  0  0
    3.7123   -1.3111    0.0000 N   0  0  0  0  0  0  0  0  0
    3.2476   -1.9927    0.0000 C   0  0  0  0  0  0  0  0  0
    5.9292    0.6722    0.0000 C   0  0  0  0  0  0  0  0  0
    6.3940    1.3539    0.0000 O   0  0  0  0  0  0  0  0  0
    6.2872   -0.0711    0.0000 N   0  0  0  0  0  0  0  0  0
    7.1122   -0.0711    0.0000 C   0  0  0  0  0  0  0  0  0
    7.6266   -0.7161    0.0000 C   0  0  0  0  0  0  0  0  0
    7.4430   -1.5204    0.0000 C   0  0  0  0  0  0  0  0  0
    6.6997   -1.8784    0.0000 N   0  0  0  0  0  0  0  0  0
    5.9564   -1.5204    0.0000 C   0  0  0  0  0  0  0  0  0
    5.7728   -0.7161    0.0000 C   0  0  0  0  0  0  0  0  0
    6.6997   -2.7034    0.0000 C   0  0  0  0  0  0  0  0  0
    7.1122   -3.4178    0.0000 C   0  0  0  0  0  0  0  0  0
    6.2872   -3.4178    0.0000 C   0  0  0  0  0  0  0  0  0
    2.5317   -0.5061    0.0000 C   0  0  0  0  0  0  0  0  0
    2.0669   -1.1878    0.0000 C   0  0  0  0  0  0  0  0  0
    1.2442   -1.1261    0.0000 C   0  0  0  0  0  0  0  0  0
    0.7795   -1.8078    0.0000 Cl  0  0  0  0  0  0  0  0  0
  1  2  1  0  0  0  0
  2  3  4  0  0  0  0
  2 29  4  0  0  0  0
  3  4  4  0  0  0  0
  4  5  1  0  0  0  0
  4 27  4  0  0  0  0
  5  6  1  0  0  0  0
  6  7  4  0  0  0  0
  6 11  4  0  0  0  0
  7  8  4  0  0  0  0
  8  9  4  0  0  0  0
  9 10  4  0  0  0  0
  9 15  1  0  0  0  0
 10 11  4  0  0  0  0
 11 12  1  0  0  0  0
 12 13  1  0  0  0  0
 13 14  1  0  0  0  0
 15 16  2  0  0  0  0
 15 17  1  0  0  0  0
 17 18  1  0  0  0  0
 17 23  1  0  0  0  0
 18 19  1  0  0  0  0
 19 20  1  0  0  0  0
 20 21  1  0  0  0  0
 21 22  1  0  0  0  0
 21 24  1  0  0  0  0
 22 23  1  0  0  0  0
 24 25  1  0  0  0  0
 24 26  1  0  0  0  0
 25 26  1  0  0  0  0
 27 28  4  0  0  0  0
 28 29  4  0  0  0  0
 29 30  1  0  0  0  0
M  END
>  <Name_Molregno>
437760

>  <Dopamine transporter>
6.48

>  <HISTAMINE H3>
8.74

>  <Norepinephrine transporter>
6.85

>  <Serotonin transporter>
8.05

$$$$
437761
  Marvin  02231216192D 0   1.00000     0.00000     0

 29 32  0  0  0  0  0  0  0  0999 V2000
   -3.9184    2.7229    0.0000 Cl  0  0  0  0  0  0  0  0  0
   -3.5605    1.9796    0.0000 C   0  0  0  0  0  0  0  0  0
   -2.7378    1.9179    0.0000 C   0  0  0  0  0  0  0  0  0
   -2.3798    1.1746    0.0000 C   0  0  0  0  0  0  0  0  0
   -2.8445    0.4930    0.0000 C   0  0  0  0  0  0  0  0  0
   -2.4866   -0.2503    0.0000 O   0  0  0  0  0  0  0  0  0
   -2.9513   -0.9320    0.0000 C   0  0  0  0  0  0  0  0  0
   -2.5934   -1.6753    0.0000 C   0  0  0  0  0  0  0  0  0
   -3.0581   -2.3569    0.0000 C   0  0  0  0  0  0  0  0  0
   -3.8808   -2.2953    0.0000 C   0  0  0  0  0  0  0  0  0
   -4.2388   -1.5520    0.0000 C   0  0  0  0  0  0  0  0  0
   -3.7740   -0.8703    0.0000 C   0  0  0  0  0  0  0  0  0
   -4.1320   -0.1270    0.0000 C   0  0  0  0  0  0  0  0  0
   -4.9547   -0.0654    0.0000 N   0  0  0  0  0  0  0  0  0
   -5.3126    0.6779    0.0000 C   0  0  0  0  0  0  0  0  0
   -4.3456   -2.9769    0.0000 C   0  0  0  0  0  0  0  0  0
   -5.1682   -2.9152    0.0000 O   0  0  0  0  0  0  0  0  0
   -3.9876   -3.7202    0.0000 N   0  0  0  0  0  0  0  0  0
   -3.1626   -3.7202    0.0000 C   0  0  0  0  0  0  0  0  0
   -2.6482   -4.3652    0.0000 C   0  0  0  0  0  0  0  0  0
   -2.8318   -5.1695    0.0000 C   0  0  0  0  0  0  0  0  0
   -3.5751   -5.5275    0.0000 N   0  0  0  0  0  0  0  0  0
   -4.3184   -5.1695    0.0000 C   0  0  0  0  0  0  0  0  0
   -4.5020   -4.3652    0.0000 C   0  0  0  0  0  0  0  0  0
   -3.5751   -6.3525    0.0000 C   0  0  0  0  0  0  0  0  0
   -3.1626   -7.0669    0.0000 C   0  0  0  0  0  0  0  0  0
   -3.9876   -7.0669    0.0000 C   0  0  0  0  0  0  0  0  0
   -3.6672    0.5546    0.0000 C   0  0  0  0  0  0  0  0  0
   -4.0252    1.2979    0.0000 C   0  0  0  0  0  0  0  0  0
  1  2  1  0  0  0  0
  2  3  4  0  0  0  0
  2 29  4  0  0  0  0
  3  4  4  0  0  0  0
  4  5  4  0  0  0  0
  5  6  1  0  0  0  0
  5 28  4  0  0  0  0
  6  7  1  0  0  0  0
  7  8  4  0  0  0  0
  7 12  4  0  0  0  0
  8  9  4  0  0  0  0
  9 10  4  0  0  0  0
 10 11  4  0  0  0  0
 10 16  1  0  0  0  0
 11 12  4  0  0  0  0
 12 13  1  0  0  0  0
 13 14  1  0  0  0  0
 14 15  1  0  0  0  0
 16 17  2  0  0  0  0
 16 18  1  0  0  0  0
 18 19  1  0  0  0  0
 18 24  1  0  0  0  0
 19 20  1  0  0  0  0
 20 21  1  0  0  0  0
 21 22  1  0  0  0  0
 22 23  1  0  0  0  0
 22 25  1  0  0  0  0
 23 24  1  0  0  0  0
 25 26  1  0  0  0  0
 25 27  1  0  0  0  0
 26 27  1  0  0  0  0
 28 29  4  0  0  0  0
M  END
>  <Name_Molregno>
437761

>  <Dopamine transporter>
6.11

>  <HISTAMINE H3>
8.96

>  <Norepinephrine transporter>
6.95

>  <Serotonin transporter>
8

$$$$
437804
  Marvin  02231216192D 0   1.00000     0.00000     0

 31 34  0  0  0  0  0  0  0  0999 V2000
    3.2010    6.3383    0.0000 S   0  0  0  0  0  0  0  0  0
    2.3783    6.3999    0.0000 C   0  0  0  0  0  0  0  0  0
    3.5590    5.5950    0.0000 C   0  0  0  0  0  0  0  0  0
    4.3816    5.5333    0.0000 C   0  0  0  0  0  0  0  0  0
    4.7396    4.7900    0.0000 C   0  0  0  0  0  0  0  0  0
    4.2749    4.1084    0.0000 C   0  0  0  0  0  0  0  0  0
    4.6328    3.3651    0.0000 O   0  0  0  0  0  0  0  0  0
    4.1681    2.6834    0.0000 C   0  0  0  0  0  0  0  0  0
    4.5260    1.9401    0.0000 C   0  0  0  0  0  0  0  0  0
    4.0613    1.2585    0.0000 C   0  0  0  0  0  0  0  0  0
    3.2386    1.3202    0.0000 C   0  0  0  0  0  0  0  0  0
    2.8806    2.0634    0.0000 C   0  0  0  0  0  0  0  0  0
    3.3454    2.7451    0.0000 C   0  0  0  0  0  0  0  0  0
    2.9874    3.4884    0.0000 C   0  0  0  0  0  0  0  0  0
    2.1647    3.5500    0.0000 N   0  0  0  0  0  0  0  0  0
    1.8068    4.2933    0.0000 C   0  0  0  0  0  0  0  0  0
    2.7739    0.6385    0.0000 C   0  0  0  0  0  0  0  0  0
    1.9512    0.7002    0.0000 O   0  0  0  0  0  0  0  0  0
    3.1318   -0.1048    0.0000 N   0  0  0  0  0  0  0  0  0
    3.9568   -0.1048    0.0000 C   0  0  0  0  0  0  0  0  0
    4.4712   -0.7498    0.0000 C   0  0  0  0  0  0  0  0  0
    4.2876   -1.5541    0.0000 C   0  0  0  0  0  0  0  0  0
    3.5443   -1.9121    0.0000 N   0  0  0  0  0  0  0  0  0
    2.8010   -1.5541    0.0000 C   0  0  0  0  0  0  0  0  0
    2.6174   -0.7498    0.0000 C   0  0  0  0  0  0  0  0  0
    3.5443   -2.7371    0.0000 C   0  0  0  0  0  0  0  0  0
    3.9568   -3.4515    0.0000 C   0  0  0  0  0  0  0  0  0
    3.1318   -3.4515    0.0000 C   0  0  0  0  0  0  0  0  0
    3.4522    4.1700    0.0000 C   0  0  0  0  0  0  0  0  0
    3.0942    4.9133    0.0000 C   0  0  0  0  0  0  0  0  0
    2.2715    4.9750    0.0000 C   0  0  0  0  0  0  0  0  0
  1  2  1  0  0  0  0
  1  3  1  0  0  0  0
  3  4  4  0  0  0  0
  3 30  4  0  0  0  0
  4  5  4  0  0  0  0
  5  6  4  0  0  0  0
  6  7  1  0  0  0  0
  6 29  4  0  0  0  0
  7  8  1  0  0  0  0
  8  9  4  0  0  0  0
  8 13  4  0  0  0  0
  9 10  4  0  0  0  0
 10 11  4  0  0  0  0
 11 12  4  0  0  0  0
 11 17  1  0  0  0  0
 12 13  4  0  0  0  0
 13 14  1  0  0  0  0
 14 15  1  0  0  0  0
 15 16  1  0  0  0  0
 17 18  2  0  0  0  0
 17 19  1  0  0  0  0
 19 20  1  0  0  0  0
 19 25  1  0  0  0  0
 20 21  1  0  0  0  0
 21 22  1  0  0  0  0
 22 23  1  0  0  0  0
 23 24  1  0  0  0  0
 23 26  1  0  0  0  0
 24 25  1  0  0  0  0
 26 27  1  0  0  0  0
 26 28  1  0  0  0  0
 27 28  1  0  0  0  0
 29 30  4  0  0  0  0
 30 31  1  0  0  0  0
M  END
>  <Name_Molregno>
437804

>  <Dopamine transporter>
5.11

>  <HISTAMINE H3>
8.39

>  <Norepinephrine transporter>
5.48

>  <Serotonin transporter>
7.92

$$$$
438179
  Marvin  02231216192D 0   1.00000     0.00000     0

 32 35  0  0  0  0  0  0  0  0999 V2000
    3.3657    6.4560    0.0000 F   0  0  0  0  0  0  0  0  0
    3.7237    5.7127    0.0000 C   0  0  0  0  0  0  0  0  0
    2.9804    5.3548    0.0000 F   0  0  0  0  0  0  0  0  0
    4.4670    6.0707    0.0000 F   0  0  0  0  0  0  0  0  0
    4.0816    4.9694    0.0000 C   0  0  0  0  0  0  0  0  0
    4.9043    4.9078    0.0000 C   0  0  0  0  0  0  0  0  0
    5.2623    4.1645    0.0000 C   0  0  0  0  0  0  0  0  0
    4.7976    3.4828    0.0000 C   0  0  0  0  0  0  0  0  0
    5.1555    2.7395    0.0000 O   0  0  0  0  0  0  0  0  0
    4.6908    2.0579    0.0000 C   0  0  0  0  0  0  0  0  0
    5.0487    1.3146    0.0000 C   0  0  0  0  0  0  0  0  0
    4.5840    0.6330    0.0000 C   0  0  0  0  0  0  0  0  0
    3.7613    0.6946    0.0000 C   0  0  0  0  0  0  0  0  0
    3.4033    1.4379    0.0000 C   0  0  0  0  0  0  0  0  0
    3.8681    2.1196    0.0000 C   0  0  0  0  0  0  0  0  0
    3.5101    2.8629    0.0000 C   0  0  0  0  0  0  0  0  0
    2.6874    2.9245    0.0000 N   0  0  0  0  0  0  0  0  0
    2.3295    3.6678    0.0000 C   0  0  0  0  0  0  0  0  0
    3.2966    0.0130    0.0000 C   0  0  0  0  0  0  0  0  0
    2.4739    0.0746    0.0000 O   0  0  0  0  0  0  0  0  0
    3.6545   -0.7303    0.0000 N   0  0  0  0  0  0  0  0  0
    4.4795   -0.7303    0.0000 C   0  0  0  0  0  0  0  0  0
    4.9939   -1.3753    0.0000 C   0  0  0  0  0  0  0  0  0
    4.8103   -2.1797    0.0000 C   0  0  0  0  0  0  0  0  0
    4.0670   -2.5376    0.0000 N   0  0  0  0  0  0  0  0  0
    3.3237   -2.1797    0.0000 C   0  0  0  0  0  0  0  0  0
    3.1401   -1.3753    0.0000 C   0  0  0  0  0  0  0  0  0
    4.0670   -3.3626    0.0000 C   0  0  0  0  0  0  0  0  0
    4.4795   -4.0771    0.0000 C   0  0  0  0  0  0  0  0  0
    3.6545   -4.0771    0.0000 C   0  0  0  0  0  0  0  0  0
    3.9749    3.5445    0.0000 C   0  0  0  0  0  0  0  0  0
    3.6169    4.2878    0.0000 C   0  0  0  0  0  0  0  0  0
  1  2  1  0  0  0  0
  2  3  1  0  0  0  0
  2  4  1  0  0  0  0
  2  5  1  0  0  0  0
  5  6  4  0  0  0  0
  5 32  4  0  0  0  0
  6  7  4  0  0  0  0
  7  8  4  0  0  0  0
  8  9  1  0  0  0  0
  8 31  4  0  0  0  0
  9 10  1  0  0  0  0
 10 11  4  0  0  0  0
 10 15  4  0  0  0  0
 11 12  4  0  0  0  0
 12 13  4  0  0  0  0
 13 14  4  0  0  0  0
 13 19  1  0  0  0  0
 14 15  4  0  0  0  0
 15 16  1  0  0  0  0
 16 17  1  0  0  0  0
 17 18  1  0  0  0  0
 19 20  2  0  0  0  0
 19 21  1  0  0  0  0
 21 22  1  0  0  0  0
 21 27  1  0  0  0  0
 22 23  1  0  0  0  0
 23 24  1  0  0  0  0
 24 25  1  0  0  0  0
 25 26  1  0  0  0  0
 25 28  1  0  0  0  0
 26 27  1  0  0  0  0
 28 29  1  0  0  0  0
 28 30  1  0  0  0  0
 29 30  1  0  0  0  0
 31 32  4  0  0  0  0
M  END
>  <Name_Molregno>
438179

>  <Dopamine transporter>
5.05

>  <HISTAMINE H3>
8.7

>  <Norepinephrine transporter>
5.24

>  <Serotonin transporter>
7.77

$$$$
438226
  Marvin  02231216192D 0   1.00000     0.00000     0

 29 32  0  0  0  0  0  0  0  0999 V2000
    5.6111    3.3557    0.0000 F   0  0  0  0  0  0  0  0  0
    5.1464    2.6740    0.0000 C   0  0  0  0  0  0  0  0  0
    5.5043    1.9307    0.0000 C   0  0  0  0  0  0  0  0  0
    5.0396    1.2491    0.0000 C   0  0  0  0  0  0  0  0  0
    5.3975    0.5058    0.0000 O   0  0  0  0  0  0  0  0  0
    4.9328   -0.1759    0.0000 C   0  0  0  0  0  0  0  0  0
    5.2908   -0.9192    0.0000 C   0  0  0  0  0  0  0  0  0
    4.8260   -1.6008    0.0000 C   0  0  0  0  0  0  0  0  0
    4.0033   -1.5392    0.0000 C   0  0  0  0  0  0  0  0  0
    3.6454   -0.7959    0.0000 C   0  0  0  0  0  0  0  0  0
    4.1101   -0.1142    0.0000 C   0  0  0  0  0  0  0  0  0
    3.7522    0.6291    0.0000 C   0  0  0  0  0  0  0  0  0
    2.9295    0.6907    0.0000 N   0  0  0  0  0  0  0  0  0
    2.5715    1.4340    0.0000 C   0  0  0  0  0  0  0  0  0
    3.5386   -2.2208    0.0000 C   0  0  0  0  0  0  0  0  0
    2.7159   -2.1592    0.0000 O   0  0  0  0  0  0  0  0  0
    3.8965   -2.9641    0.0000 N   0  0  0  0  0  0  0  0  0
    4.7215   -2.9641    0.0000 C   0  0  0  0  0  0  0  0  0
    5.2359   -3.6091    0.0000 C   0  0  0  0  0  0  0  0  0
    5.0523   -4.4134    0.0000 C   0  0  0  0  0  0  0  0  0
    4.3090   -4.7714    0.0000 N   0  0  0  0  0  0  0  0  0
    3.5657   -4.4134    0.0000 C   0  0  0  0  0  0  0  0  0
    3.3822   -3.6091    0.0000 C   0  0  0  0  0  0  0  0  0
    4.3090   -5.5964    0.0000 C   0  0  0  0  0  0  0  0  0
    4.7215   -6.3109    0.0000 C   0  0  0  0  0  0  0  0  0
    3.8965   -6.3109    0.0000 C   0  0  0  0  0  0  0  0  0
    4.2169    1.3107    0.0000 C   0  0  0  0  0  0  0  0  0
    3.8589    2.0540    0.0000 C   0  0  0  0  0  0  0  0  0
    4.3237    2.7357    0.0000 C   0  0  0  0  0  0  0  0  0
  1  2  1  0  0  0  0
  2  3  4  0  0  0  0
  2 29  4  0  0  0  0
  3  4  4  0  0  0  0
  4  5  1  0  0  0  0
  4 27  4  0  0  0  0
  5  6  1  0  0  0  0
  6  7  4  0  0  0  0
  6 11  4  0  0  0  0
  7  8  4  0  0  0  0
  8  9  4  0  0  0  0
  9 10  4  0  0  0  0
  9 15  1  0  0  0  0
 10 11  4  0  0  0  0
 11 12  1  0  0  0  0
 12 13  1  0  0  0  0
 13 14  1  0  0  0  0
 15 16  2  0  0  0  0
 15 17  1  0  0  0  0
 17 18  1  0  0  0  0
 17 23  1  0  0  0  0
 18 19  1  0  0  0  0
 19 20  1  0  0  0  0
 20 21  1  0  0  0  0
 21 22  1  0  0  0  0
 21 24  1  0  0  0  0
 22 23  1  0  0  0  0
 24 25  1  0  0  0  0
 24 26  1  0  0  0  0
 25 26  1  0  0  0  0
 27 28  4  0  0  0  0
 28 29  4  0  0  0  0
M  END
>  <Name_Molregno>
438226

>  <Dopamine transporter>
5.1

>  <HISTAMINE H3>
9

>  <Norepinephrine transporter>
6.12

>  <Serotonin transporter>
6.63

$$$$
438272
  Marvin  02231216192D 0   1.00000     0.00000     0

 29 32  0  0  0  0  0  0  0  0999 V2000
    5.6111    3.3557    0.0000 Cl  0  0  0  0  0  0  0  0  0
    5.1464    2.6740    0.0000 C   0  0  0  0  0  0  0  0  0
    5.5043    1.9307    0.0000 C   0  0  0  0  0  0  0  0  0
    5.0396    1.2491    0.0000 C   0  0  0  0  0  0  0  0  0
    5.3975    0.5058    0.0000 O   0  0  0  0  0  0  0  0  0
    4.9328   -0.1759    0.0000 C   0  0  0  0  0  0  0  0  0
    5.2908   -0.9192    0.0000 C   0  0  0  0  0  0  0  0  0
    4.8260   -1.6008    0.0000 C   0  0  0  0  0  0  0  0  0
    4.0033   -1.5392    0.0000 C   0  0  0  0  0  0  0  0  0
    3.6454   -0.7959    0.0000 C   0  0  0  0  0  0  0  0  0
    4.1101   -0.1142    0.0000 C   0  0  0  0  0  0  0  0  0
    3.7522    0.6291    0.0000 C   0  0  0  0  0  0  0  0  0
    2.9295    0.6907    0.0000 N   0  0  0  0  0  0  0  0  0
    2.5715    1.4340    0.0000 C   0  0  0  0  0  0  0  0  0
    3.5386   -2.2208    0.0000 C   0  0  0  0  0  0  0  0  0
    2.7159   -2.1592    0.0000 O   0  0  0  0  0  0  0  0  0
    3.8965   -2.9641    0.0000 N   0  0  0  0  0  0  0  0  0
    4.7215   -2.9641    0.0000 C   0  0  0  0  0  0  0  0  0
    5.2359   -3.6091    0.0000 C   0  0  0  0  0  0  0  0  0
    5.0523   -4.4134    0.0000 C   0  0  0  0  0  0  0  0  0
    4.3090   -4.7714    0.0000 N   0  0  0  0  0  0  0  0  0
    3.5657   -4.4134    0.0000 C   0  0  0  0  0  0  0  0  0
    3.3822   -3.6091    0.0000 C   0  0  0  0  0  0  0  0  0
    4.3090   -5.5964    0.0000 C   0  0  0  0  0  0  0  0  0
    4.7215   -6.3109    0.0000 C   0  0  0  0  0  0  0  0  0
    3.8965   -6.3109    0.0000 C   0  0  0  0  0  0  0  0  0
    4.2169    1.3107    0.0000 C   0  0  0  0  0  0  0  0  0
    3.8589    2.0540    0.0000 C   0  0  0  0  0  0  0  0  0
    4.3237    2.7357    0.0000 C   0  0  0  0  0  0  0  0  0
  1  2  1  0  0  0  0
  2  3  4  0  0  0  0
  2 29  4  0  0  0  0
  3  4  4  0  0  0  0
  4  5  1  0  0  0  0
  4 27  4  0  0  0  0
  5  6  1  0  0  0  0
  6  7  4  0  0  0  0
  6 11  4  0  0  0  0
  7  8  4  0  0  0  0
  8  9  4  0  0  0  0
  9 10  4  0  0  0  0
  9 15  1  0  0  0  0
 10 11  4  0  0  0  0
 11 12  1  0  0  0  0
 12 13  1  0  0  0  0
 13 14  1  0  0  0  0
 15 16  2  0  0  0  0
 15 17  1  0  0  0  0
 17 18  1  0  0  0  0
 17 23  1  0  0  0  0
 18 19  1  0  0  0  0
 19 20  1  0  0  0  0
 20 21  1  0  0  0  0
 21 22  1  0  0  0  0
 21 24  1  0  0  0  0
 22 23  1  0  0  0  0
 24 25  1  0  0  0  0
 24 26  1  0  0  0  0
 25 26  1  0  0  0  0
 27 28  4  0  0  0  0
 28 29  4  0  0  0  0
M  END
>  <Name_Molregno>
438272

>  <Dopamine transporter>
5.6

>  <HISTAMINE H3>
9.05

>  <Norepinephrine transporter>
6.38

>  <Serotonin transporter>
7.33

$$$$
438273
  Marvin  02231216192D 0   1.00000     0.00000     0

 28 31  0  0  0  0  0  0  0  0999 V2000
    0.1774    0.1113    0.0000 O   0  0  0  0  0  0  0  0  0
    1.0001    0.0497    0.0000 C   0  0  0  0  0  0  0  0  0
    1.4648    0.7313    0.0000 C   0  0  0  0  0  0  0  0  0
    2.2875    0.6697    0.0000 C   0  0  0  0  0  0  0  0  0
    2.6455   -0.0736    0.0000 C   0  0  0  0  0  0  0  0  0
    2.1807   -0.7553    0.0000 C   0  0  0  0  0  0  0  0  0
    1.3580   -0.6936    0.0000 C   0  0  0  0  0  0  0  0  0
    0.8933   -1.3753    0.0000 C   0  0  0  0  0  0  0  0  0
    1.2512   -2.1186    0.0000 N   0  0  0  0  0  0  0  0  0
    0.7865   -2.8002    0.0000 C   0  0  0  0  0  0  0  0  0
    3.4682   -0.1353    0.0000 C   0  0  0  0  0  0  0  0  0
    3.9329    0.5464    0.0000 O   0  0  0  0  0  0  0  0  0
    3.8261   -0.8786    0.0000 N   0  0  0  0  0  0  0  0  0
    4.6511   -0.8786    0.0000 C   0  0  0  0  0  0  0  0  0
    5.1655   -1.5236    0.0000 C   0  0  0  0  0  0  0  0  0
    4.9819   -2.3279    0.0000 C   0  0  0  0  0  0  0  0  0
    4.2386   -2.6859    0.0000 N   0  0  0  0  0  0  0  0  0
    3.4953   -2.3279    0.0000 C   0  0  0  0  0  0  0  0  0
    3.3117   -1.5236    0.0000 C   0  0  0  0  0  0  0  0  0
    4.2386   -3.5109    0.0000 C   0  0  0  0  0  0  0  0  0
    4.6511   -4.2253    0.0000 C   0  0  0  0  0  0  0  0  0
    3.8261   -4.2253    0.0000 C   0  0  0  0  0  0  0  0  0
   -0.1806    0.8546    0.0000 C   0  0  0  0  0  0  0  0  0
   -1.0033    0.9163    0.0000 C   0  0  0  0  0  0  0  0  0
   -1.3612    1.6596    0.0000 C   0  0  0  0  0  0  0  0  0
   -0.8965    2.3412    0.0000 C   0  0  0  0  0  0  0  0  0
   -0.0738    2.2796    0.0000 C   0  0  0  0  0  0  0  0  0
    0.2842    1.5363    0.0000 C   0  0  0  0  0  0  0  0  0
  1  2  1  0  0  0  0
  1 23  1  0  0  0  0
  2  3  4  0  0  0  0
  2  7  4  0  0  0  0
  3  4  4  0  0  0  0
  4  5  4  0  0  0  0
  5  6  4  0  0  0  0
  5 11  1  0  0  0  0
  6  7  4  0  0  0  0
  7  8  1  0  0  0  0
  8  9  1  0  0  0  0
  9 10  1  0  0  0  0
 11 12  2  0  0  0  0
 11 13  1  0  0  0  0
 13 14  1  0  0  0  0
 13 19  1  0  0  0  0
 14 15  1  0  0  0  0
 15 16  1  0  0  0  0
 16 17  1  0  0  0  0
 17 18  1  0  0  0  0
 17 20  1  0  0  0  0
 18 19  1  0  0  0  0
 20 21  1  0  0  0  0
 20 22  1  0  0  0  0
 21 22  1  0  0  0  0
 23 24  4  0  0  0  0
 23 28  4  0  0  0  0
 24 25  4  0  0  0  0
 25 26  4  0  0  0  0
 26 27  4  0  0  0  0
 27 28  4  0  0  0  0
M  END
>  <Name_Molregno>
438273

>  <Dopamine transporter>
5.14

>  <HISTAMINE H3>
9.1

>  <Norepinephrine transporter>
6.33

>  <Serotonin transporter>
6.64

$$$$
438399
  Marvin  02231216192D 0   1.00000     0.00000     0

 30 32  0  0  0  0  0  0  0  0999 V2000
    5.4198    4.8476    0.0000 S   0  0  0  0  0  0  0  0  0
    4.7053    5.2601    0.0000 C   0  0  0  0  0  0  0  0  0
    5.4198    4.0226    0.0000 C   0  0  0  0  0  0  0  0  0
    6.1342    3.6101    0.0000 C   0  0  0  0  0  0  0  0  0
    6.1342    2.7851    0.0000 C   0  0  0  0  0  0  0  0  0
    5.4198    2.3726    0.0000 C   0  0  0  0  0  0  0  0  0
    5.4198    1.5476    0.0000 O   0  0  0  0  0  0  0  0  0
    4.7053    1.1351    0.0000 C   0  0  0  0  0  0  0  0  0
    4.7053    0.3101    0.0000 C   0  0  0  0  0  0  0  0  0
    3.9908   -0.1024    0.0000 C   0  0  0  0  0  0  0  0  0
    3.2763    0.3101    0.0000 C   0  0  0  0  0  0  0  0  0
    3.2763    1.1351    0.0000 C   0  0  0  0  0  0  0  0  0
    3.9908    1.5476    0.0000 C   0  0  0  0  0  0  0  0  0
    3.9908    2.3726    0.0000 C   0  0  0  0  0  0  0  0  0
    3.2763    2.7851    0.0000 N   0  0  0  0  0  0  0  0  0
    3.2763    3.6101    0.0000 C   0  0  0  0  0  0  0  0  0
    2.5619   -0.1024    0.0000 C   0  0  0  0  0  0  0  0  0
    2.5619   -0.9274    0.0000 O   0  0  0  0  0  0  0  0  0
    1.8474    0.3101    0.0000 N   0  0  0  0  0  0  0  0  0
    1.1329   -0.1024    0.0000 C   0  0  0  0  0  0  0  0  0
    0.4185    0.3101    0.0000 C   0  0  0  0  0  0  0  0  0
    0.4185    1.1351    0.0000 N   0  0  0  0  0  0  0  0  0
    1.1329    1.5476    0.0000 C   0  0  0  0  0  0  0  0  0
    1.8474    1.1351    0.0000 C   0  0  0  0  0  0  0  0  0
   -0.2960    1.5476    0.0000 C   0  0  0  0  0  0  0  0  0
   -1.0105    1.1351    0.0000 C   0  0  0  0  0  0  0  0  0
   -0.2960    2.3726    0.0000 C   0  0  0  0  0  0  0  0  0
    4.7053    2.7851    0.0000 C   0  0  0  0  0  0  0  0  0
    4.7053    3.6101    0.0000 C   0  0  0  0  0  0  0  0  0
    3.9908    4.0226    0.0000 C   0  0  0  0  0  0  0  0  0
  1  2  1  0  0  0  0
  1  3  1  0  0  0  0
  3  4  4  0  0  0  0
  3 29  4  0  0  0  0
  4  5  4  0  0  0  0
  5  6  4  0  0  0  0
  6  7  1  0  0  0  0
  6 28  4  0  0  0  0
  7  8  1  0  0  0  0
  8  9  4  0  0  0  0
  8 13  4  0  0  0  0
  9 10  4  0  0  0  0
 10 11  4  0  0  0  0
 11 12  4  0  0  0  0
 11 17  1  0  0  0  0
 12 13  4  0  0  0  0
 13 14  1  0  0  0  0
 14 15  1  0  0  0  0
 15 16  1  0  0  0  0
 17 18  2  0  0  0  0
 17 19  1  0  0  0  0
 19 20  1  0  0  0  0
 19 24  1  0  0  0  0
 20 21  1  0  0  0  0
 21 22  1  0  0  0  0
 22 23  1  0  0  0  0
 22 25  1  0  0  0  0
 23 24  1  0  0  0  0
 25 26  1  0  0  0  0
 25 27  1  0  0  0  0
 28 29  4  0  0  0  0
 29 30  1  0  0  0  0
M  END
>  <Name_Molregno>
438399

>  <Dopamine transporter>
5.4

>  <HISTAMINE H3>
8.37

>  <Norepinephrine transporter>
6.33

>  <Serotonin transporter>
8.09

$$$$
438451
  Marvin  02231216192D 0   1.00000     0.00000     0

 29 32  0  0  0  0  0  0  0  0999 V2000
   -7.0668   -1.5061    0.0000 S   0  0  0  0  0  0  0  0  0
   -7.0668   -2.3311    0.0000 C   0  0  0  0  0  0  0  0  0
   -6.3523   -1.0936    0.0000 C   0  0  0  0  0  0  0  0  0
   -6.3523   -0.2686    0.0000 C   0  0  0  0  0  0  0  0  0
   -5.6379    0.1439    0.0000 C   0  0  0  0  0  0  0  0  0
   -4.9234   -0.2686    0.0000 C   0  0  0  0  0  0  0  0  0
   -4.2089    0.1439    0.0000 O   0  0  0  0  0  0  0  0  0
   -3.4945   -0.2686    0.0000 C   0  0  0  0  0  0  0  0  0
   -2.7800    0.1439    0.0000 C   0  0  0  0  0  0  0  0  0
   -2.0655   -0.2686    0.0000 C   0  0  0  0  0  0  0  0  0
   -2.0655   -1.0936    0.0000 C   0  0  0  0  0  0  0  0  0
   -2.7800   -1.5061    0.0000 C   0  0  0  0  0  0  0  0  0
   -3.4945   -1.0936    0.0000 C   0  0  0  0  0  0  0  0  0
   -4.2089   -1.5061    0.0000 C   0  0  0  0  0  0  0  0  0
   -4.2089   -2.3311    0.0000 N   0  0  0  0  0  0  0  0  0
   -4.9234   -2.7436    0.0000 C   0  0  0  0  0  0  0  0  0
   -1.3510   -1.5061    0.0000 C   0  0  0  0  0  0  0  0  0
   -0.6366   -1.0936    0.0000 O   0  0  0  0  0  0  0  0  0
   -1.3510   -2.3311    0.0000 N   0  0  0  0  0  0  0  0  0
   -0.6366   -2.7436    0.0000 C   0  0  0  0  0  0  0  0  0
   -0.6366   -3.5686    0.0000 C   0  0  0  0  0  0  0  0  0
   -1.3510   -3.9811    0.0000 N   0  0  0  0  0  0  0  0  0
   -2.0655   -3.5686    0.0000 C   0  0  0  0  0  0  0  0  0
   -2.0655   -2.7436    0.0000 C   0  0  0  0  0  0  0  0  0
   -1.3510   -4.8061    0.0000 C   0  0  0  0  0  0  0  0  0
   -0.9385   -5.5205    0.0000 C   0  0  0  0  0  0  0  0  0
   -1.7635   -5.5205    0.0000 C   0  0  0  0  0  0  0  0  0
   -4.9234   -1.0936    0.0000 C   0  0  0  0  0  0  0  0  0
   -5.6379   -1.5061    0.0000 C   0  0  0  0  0  0  0  0  0
  1  2  1  0  0  0  0
  1  3  1  0  0  0  0
  3  4  4  0  0  0  0
  3 29  4  0  0  0  0
  4  5  4  0  0  0  0
  5  6  4  0  0  0  0
  6  7  1  0  0  0  0
  6 28  4  0  0  0  0
  7  8  1  0  0  0  0
  8  9  4  0  0  0  0
  8 13  4  0  0  0  0
  9 10  4  0  0  0  0
 10 11  4  0  0  0  0
 11 12  4  0  0  0  0
 11 17  1  0  0  0  0
 12 13  4  0  0  0  0
 13 14  1  0  0  0  0
 14 15  1  0  0  0  0
 15 16  1  0  0  0  0
 17 18  2  0  0  0  0
 17 19  1  0  0  0  0
 19 20  1  0  0  0  0
 19 24  1  0  0  0  0
 20 21  1  0  0  0  0
 21 22  1  0  0  0  0
 22 23  1  0  0  0  0
 22 25  1  0  0  0  0
 23 24  1  0  0  0  0
 25 26  1  0  0  0  0
 25 27  1  0  0  0  0
 26 27  1  0  0  0  0
 28 29  4  0  0  0  0
M  END
>  <Name_Molregno>
438451

>  <Dopamine transporter>
5.08

>  <HISTAMINE H3>
7.54

>  <Norepinephrine transporter>
5.43

>  <Serotonin transporter>
8.3

$$$$
438503
  Marvin  02231216192D 0   1.00000     0.00000     0

 29 31  0  0  0  0  0  0  0  0999 V2000
   -1.0899    1.0934    0.0000 S   0  0  0  0  0  0  0  0  0
   -1.8044    1.5059    0.0000 C   0  0  0  0  0  0  0  0  0
   -1.0899    0.2684    0.0000 C   0  0  0  0  0  0  0  0  0
   -0.3755   -0.1441    0.0000 C   0  0  0  0  0  0  0  0  0
   -0.3755   -0.9691    0.0000 C   0  0  0  0  0  0  0  0  0
   -1.0899   -1.3816    0.0000 C   0  0  0  0  0  0  0  0  0
   -1.0899   -2.2066    0.0000 O   0  0  0  0  0  0  0  0  0
   -1.8044   -2.6191    0.0000 C   0  0  0  0  0  0  0  0  0
   -1.8044   -3.4441    0.0000 C   0  0  0  0  0  0  0  0  0
   -2.5189   -3.8566    0.0000 C   0  0  0  0  0  0  0  0  0
   -3.2333   -3.4441    0.0000 C   0  0  0  0  0  0  0  0  0
   -3.2333   -2.6191    0.0000 C   0  0  0  0  0  0  0  0  0
   -2.5189   -2.2066    0.0000 C   0  0  0  0  0  0  0  0  0
   -2.5189   -1.3816    0.0000 C   0  0  0  0  0  0  0  0  0
   -3.2333   -0.9691    0.0000 N   0  0  0  0  0  0  0  0  0
   -3.2333   -0.1441    0.0000 C   0  0  0  0  0  0  0  0  0
   -3.9478   -3.8566    0.0000 C   0  0  0  0  0  0  0  0  0
   -3.9478   -4.6816    0.0000 O   0  0  0  0  0  0  0  0  0
   -4.6623   -3.4441    0.0000 N   0  0  0  0  0  0  0  0  0
   -5.3768   -3.8566    0.0000 C   0  0  0  0  0  0  0  0  0
   -6.0912   -3.4441    0.0000 C   0  0  0  0  0  0  0  0  0
   -6.0912   -2.6191    0.0000 N   0  0  0  0  0  0  0  0  0
   -5.3768   -2.2066    0.0000 C   0  0  0  0  0  0  0  0  0
   -4.6623   -2.6191    0.0000 C   0  0  0  0  0  0  0  0  0
   -6.8057   -2.2066    0.0000 C   0  0  0  0  0  0  0  0  0
   -7.5202   -2.6191    0.0000 C   0  0  0  0  0  0  0  0  0
   -6.8057   -1.3816    0.0000 C   0  0  0  0  0  0  0  0  0
   -1.8044   -0.9691    0.0000 C   0  0  0  0  0  0  0  0  0
   -1.8044   -0.1441    0.0000 C   0  0  0  0  0  0  0  0  0
  1  2  1  0  0  0  0
  1  3  1  0  0  0  0
  3  4  4  0  0  0  0
  3 29  4  0  0  0  0
  4  5  4  0  0  0  0
  5  6  4  0  0  0  0
  6  7  1  0  0  0  0
  6 28  4  0  0  0  0
  7  8  1  0  0  0  0
  8  9  4  0  0  0  0
  8 13  4  0  0  0  0
  9 10  4  0  0  0  0
 10 11  4  0  0  0  0
 11 12  4  0  0  0  0
 11 17  1  0  0  0  0
 12 13  4  0  0  0  0
 13 14  1  0  0  0  0
 14 15  1  0  0  0  0
 15 16  1  0  0  0  0
 17 18  2  0  0  0  0
 17 19  1  0  0  0  0
 19 20  1  0  0  0  0
 19 24  1  0  0  0  0
 20 21  1  0  0  0  0
 21 22  1  0  0  0  0
 22 23  1  0  0  0  0
 22 25  1  0  0  0  0
 23 24  1  0  0  0  0
 25 26  1  0  0  0  0
 25 27  1  0  0  0  0
 28 29  4  0  0  0  0
M  END
>  <Name_Molregno>
438503

>  <Dopamine transporter>
5.14

>  <HISTAMINE H3>
8.66

>  <Norepinephrine transporter>
6.28

>  <Serotonin transporter>
8.23

$$$$
438546
  Marvin  02231216192D 0   1.00000     0.00000     0

 28 31  0  0  0  0  0  0  0  0999 V2000
   -0.5269    4.6792    0.0000 Cl  0  0  0  0  0  0  0  0  0
    0.1876    4.2667    0.0000 C   0  0  0  0  0  0  0  0  0
    0.9020    4.6792    0.0000 C   0  0  0  0  0  0  0  0  0
    1.6165    4.2667    0.0000 C   0  0  0  0  0  0  0  0  0
    2.3310    4.6792    0.0000 O   0  0  0  0  0  0  0  0  0
    3.0454    4.2667    0.0000 C   0  0  0  0  0  0  0  0  0
    3.7599    4.6792    0.0000 C   0  0  0  0  0  0  0  0  0
    4.4744    4.2667    0.0000 C   0  0  0  0  0  0  0  0  0
    4.4744    3.4417    0.0000 C   0  0  0  0  0  0  0  0  0
    3.7599    3.0292    0.0000 C   0  0  0  0  0  0  0  0  0
    3.0454    3.4417    0.0000 C   0  0  0  0  0  0  0  0  0
    2.3310    3.0292    0.0000 C   0  0  0  0  0  0  0  0  0
    2.3310    2.2042    0.0000 N   0  0  0  0  0  0  0  0  0
    1.6165    1.7917    0.0000 C   0  0  0  0  0  0  0  0  0
    5.1889    3.0292    0.0000 C   0  0  0  0  0  0  0  0  0
    5.9033    3.4417    0.0000 O   0  0  0  0  0  0  0  0  0
    5.1889    2.2042    0.0000 N   0  0  0  0  0  0  0  0  0
    5.9033    1.7917    0.0000 C   0  0  0  0  0  0  0  0  0
    5.9033    0.9667    0.0000 C   0  0  0  0  0  0  0  0  0
    5.1889    0.5542    0.0000 N   0  0  0  0  0  0  0  0  0
    4.4744    0.9667    0.0000 C   0  0  0  0  0  0  0  0  0
    4.4744    1.7917    0.0000 C   0  0  0  0  0  0  0  0  0
    5.1889   -0.2708    0.0000 C   0  0  0  0  0  0  0  0  0
    5.6014   -0.9853    0.0000 C   0  0  0  0  0  0  0  0  0
    4.7764   -0.9853    0.0000 C   0  0  0  0  0  0  0  0  0
    1.6165    3.4417    0.0000 C   0  0  0  0  0  0  0  0  0
    0.9020    3.0292    0.0000 C   0  0  0  0  0  0  0  0  0
    0.1876    3.4417    0.0000 C   0  0  0  0  0  0  0  0  0
  1  2  1  0  0  0  0
  2  3  4  0  0  0  0
  2 28  4  0  0  0  0
  3  4  4  0  0  0  0
  4  5  1  0  0  0  0
  4 26  4  0  0  0  0
  5  6  1  0  0  0  0
  6  7  4  0  0  0  0
  6 11  4  0  0  0  0
  7  8  4  0  0  0  0
  8  9  4  0  0  0  0
  9 10  4  0  0  0  0
  9 15  1  0  0  0  0
 10 11  4  0  0  0  0
 11 12  1  0  0  0  0
 12 13  1  0  0  0  0
 13 14  1  0  0  0  0
 15 16  2  0  0  0  0
 15 17  1  0  0  0  0
 17 18  1  0  0  0  0
 17 22  1  0  0  0  0
 18 19  1  0  0  0  0
 19 20  1  0  0  0  0
 20 21  1  0  0  0  0
 20 23  1  0  0  0  0
 21 22  1  0  0  0  0
 23 24  1  0  0  0  0
 23 25  1  0  0  0  0
 24 25  1  0  0  0  0
 26 27  4  0  0  0  0
 27 28  4  0  0  0  0
M  END
>  <Name_Molregno>
438546

>  <Dopamine transporter>
5.15

>  <HISTAMINE H3>
7.85

>  <Norepinephrine transporter>
5.7

>  <Serotonin transporter>
6.81

$$$$
438630
  Marvin  02231216192D 0   1.00000     0.00000     0

 29 31  0  0  0  0  0  0  0  0999 V2000
    2.1005    0.9271    0.0000 O   0  0  0  0  0  0  0  0  0
    2.1005    0.1021    0.0000 C   0  0  0  0  0  0  0  0  0
    2.8150   -0.3104    0.0000 C   0  0  0  0  0  0  0  0  0
    2.8150   -1.1354    0.0000 C   0  0  0  0  0  0  0  0  0
    2.1005   -1.5479    0.0000 C   0  0  0  0  0  0  0  0  0
    1.3861   -1.1354    0.0000 C   0  0  0  0  0  0  0  0  0
    1.3861   -0.3104    0.0000 C   0  0  0  0  0  0  0  0  0
    0.6716    0.1021    0.0000 C   0  0  0  0  0  0  0  0  0
   -0.0429   -0.3104    0.0000 N   0  0  0  0  0  0  0  0  0
   -0.7573    0.1021    0.0000 C   0  0  0  0  0  0  0  0  0
    2.1005   -2.3729    0.0000 C   0  0  0  0  0  0  0  0  0
    2.8150   -2.7854    0.0000 O   0  0  0  0  0  0  0  0  0
    1.3861   -2.7854    0.0000 N   0  0  0  0  0  0  0  0  0
    1.3861   -3.6104    0.0000 C   0  0  0  0  0  0  0  0  0
    0.6716   -4.0229    0.0000 C   0  0  0  0  0  0  0  0  0
   -0.0429   -3.6104    0.0000 N   0  0  0  0  0  0  0  0  0
   -0.0429   -2.7854    0.0000 C   0  0  0  0  0  0  0  0  0
    0.6716   -2.3729    0.0000 C   0  0  0  0  0  0  0  0  0
   -0.7573   -4.0229    0.0000 C   0  0  0  0  0  0  0  0  0
   -1.4718   -3.6104    0.0000 C   0  0  0  0  0  0  0  0  0
   -0.7573   -4.8479    0.0000 C   0  0  0  0  0  0  0  0  0
    2.8150    1.3396    0.0000 C   0  0  0  0  0  0  0  0  0
    2.8150    2.1646    0.0000 C   0  0  0  0  0  0  0  0  0
    3.5295    2.5771    0.0000 C   0  0  0  0  0  0  0  0  0
    3.5295    3.4021    0.0000 O   0  0  0  0  0  0  0  0  0
    2.8150    3.8146    0.0000 C   0  0  0  0  0  0  0  0  0
    4.2440    2.1646    0.0000 C   0  0  0  0  0  0  0  0  0
    4.2440    1.3396    0.0000 C   0  0  0  0  0  0  0  0  0
    3.5295    0.9271    0.0000 C   0  0  0  0  0  0  0  0  0
  1  2  1  0  0  0  0
  1 22  1  0  0  0  0
  2  3  4  0  0  0  0
  2  7  4  0  0  0  0
  3  4  4  0  0  0  0
  4  5  4  0  0  0  0
  5  6  4  0  0  0  0
  5 11  1  0  0  0  0
  6  7  4  0  0  0  0
  7  8  1  0  0  0  0
  8  9  1  0  0  0  0
  9 10  1  0  0  0  0
 11 12  2  0  0  0  0
 11 13  1  0  0  0  0
 13 14  1  0  0  0  0
 13 18  1  0  0  0  0
 14 15  1  0  0  0  0
 15 16  1  0  0  0  0
 16 17  1  0  0  0  0
 16 19  1  0  0  0  0
 17 18  1  0  0  0  0
 19 20  1  0  0  0  0
 19 21  1  0  0  0  0
 22 23  4  0  0  0  0
 22 29  4  0  0  0  0
 23 24  4  0  0  0  0
 24 25  1  0  0  0  0
 24 27  4  0  0  0  0
 25 26  1  0  0  0  0
 27 28  4  0  0  0  0
 28 29  4  0  0  0  0
M  END
>  <Name_Molregno>
438630

>  <Dopamine transporter>
5.15

>  <HISTAMINE H3>
8.96

>  <Norepinephrine transporter>
6.14

>  <Serotonin transporter>
7.55

$$$$
438777
  Marvin  02231216192D 0   1.00000     0.00000     0

 28 31  0  0  0  0  0  0  0  0999 V2000
   -7.3355   -1.6108    0.0000 Cl  0  0  0  0  0  0  0  0  0
   -6.6210   -1.1983    0.0000 C   0  0  0  0  0  0  0  0  0
   -6.6210   -0.3733    0.0000 C   0  0  0  0  0  0  0  0  0
   -5.9065    0.0392    0.0000 C   0  0  0  0  0  0  0  0  0
   -5.1921   -0.3733    0.0000 C   0  0  0  0  0  0  0  0  0
   -4.4776    0.0392    0.0000 O   0  0  0  0  0  0  0  0  0
   -3.7631   -0.3733    0.0000 C   0  0  0  0  0  0  0  0  0
   -3.0487    0.0392    0.0000 C   0  0  0  0  0  0  0  0  0
   -2.3342   -0.3733    0.0000 C   0  0  0  0  0  0  0  0  0
   -2.3342   -1.1983    0.0000 C   0  0  0  0  0  0  0  0  0
   -3.0487   -1.6108    0.0000 C   0  0  0  0  0  0  0  0  0
   -3.7631   -1.1983    0.0000 C   0  0  0  0  0  0  0  0  0
   -4.4776   -1.6108    0.0000 C   0  0  0  0  0  0  0  0  0
   -4.4776   -2.4358    0.0000 N   0  0  0  0  0  0  0  0  0
   -5.1921   -2.8483    0.0000 C   0  0  0  0  0  0  0  0  0
   -1.6197   -1.6108    0.0000 C   0  0  0  0  0  0  0  0  0
   -0.9052   -1.1983    0.0000 O   0  0  0  0  0  0  0  0  0
   -1.6197   -2.4358    0.0000 N   0  0  0  0  0  0  0  0  0
   -0.9052   -2.8483    0.0000 C   0  0  0  0  0  0  0  0  0
   -0.9052   -3.6733    0.0000 C   0  0  0  0  0  0  0  0  0
   -1.6197   -4.0858    0.0000 N   0  0  0  0  0  0  0  0  0
   -2.3342   -3.6733    0.0000 C   0  0  0  0  0  0  0  0  0
   -2.3342   -2.8483    0.0000 C   0  0  0  0  0  0  0  0  0
   -1.6197   -4.9108    0.0000 C   0  0  0  0  0  0  0  0  0
   -1.2072   -5.6252    0.0000 C   0  0  0  0  0  0  0  0  0
   -2.0322   -5.6252    0.0000 C   0  0  0  0  0  0  0  0  0
   -5.1921   -1.1983    0.0000 C   0  0  0  0  0  0  0  0  0
   -5.9065   -1.6108    0.0000 C   0  0  0  0  0  0  0  0  0
  1  2  1  0  0  0  0
  2  3  4  0  0  0  0
  2 28  4  0  0  0  0
  3  4  4  0  0  0  0
  4  5  4  0  0  0  0
  5  6  1  0  0  0  0
  5 27  4  0  0  0  0
  6  7  1  0  0  0  0
  7  8  4  0  0  0  0
  7 12  4  0  0  0  0
  8  9  4  0  0  0  0
  9 10  4  0  0  0  0
 10 11  4  0  0  0  0
 10 16  1  0  0  0  0
 11 12  4  0  0  0  0
 12 13  1  0  0  0  0
 13 14  1  0  0  0  0
 14 15  1  0  0  0  0
 16 17  2  0  0  0  0
 16 18  1  0  0  0  0
 18 19  1  0  0  0  0
 18 23  1  0  0  0  0
 19 20  1  0  0  0  0
 20 21  1  0  0  0  0
 21 22  1  0  0  0  0
 21 24  1  0  0  0  0
 22 23  1  0  0  0  0
 24 25  1  0  0  0  0
 24 26  1  0  0  0  0
 25 26  1  0  0  0  0
 27 28  4  0  0  0  0
M  END
>  <Name_Molregno>
438777

>  <Dopamine transporter>
5.52

>  <HISTAMINE H3>
7.96

>  <Norepinephrine transporter>
5.89

>  <Serotonin transporter>
7.64

$$$$
438879
  Marvin  02231216192D 0   1.00000     0.00000     0

 29 32  0  0  0  0  0  0  0  0999 V2000
    0.3794    2.5719    0.0000 Cl  0  0  0  0  0  0  0  0  0
    1.0938    2.1594    0.0000 C   0  0  0  0  0  0  0  0  0
    1.8083    2.5719    0.0000 C   0  0  0  0  0  0  0  0  0
    2.5228    2.1594    0.0000 C   0  0  0  0  0  0  0  0  0
    3.2373    2.5719    0.0000 O   0  0  0  0  0  0  0  0  0
    3.9517    2.1594    0.0000 C   0  0  0  0  0  0  0  0  0
    4.6662    2.5719    0.0000 C   0  0  0  0  0  0  0  0  0
    5.3807    2.1594    0.0000 C   0  0  0  0  0  0  0  0  0
    5.3807    1.3344    0.0000 C   0  0  0  0  0  0  0  0  0
    4.6662    0.9219    0.0000 C   0  0  0  0  0  0  0  0  0
    3.9517    1.3344    0.0000 C   0  0  0  0  0  0  0  0  0
    3.2373    0.9219    0.0000 C   0  0  0  0  0  0  0  0  0
    3.2373    0.0969    0.0000 N   0  0  0  0  0  0  0  0  0
    2.5228   -0.3156    0.0000 C   0  0  0  0  0  0  0  0  0
    6.0951    0.9219    0.0000 C   0  0  0  0  0  0  0  0  0
    6.8096    1.3344    0.0000 O   0  0  0  0  0  0  0  0  0
    6.0951    0.0969    0.0000 N   0  0  0  0  0  0  0  0  0
    6.8096   -0.3156    0.0000 C   0  0  0  0  0  0  0  0  0
    6.8096   -1.1406    0.0000 C   0  0  0  0  0  0  0  0  0
    6.0951   -1.5531    0.0000 N   0  0  0  0  0  0  0  0  0
    5.3807   -1.1406    0.0000 C   0  0  0  0  0  0  0  0  0
    5.3807   -0.3156    0.0000 C   0  0  0  0  0  0  0  0  0
    6.0951   -2.3781    0.0000 C   0  0  0  0  0  0  0  0  0
    6.5076   -3.0925    0.0000 C   0  0  0  0  0  0  0  0  0
    5.6826   -3.0925    0.0000 C   0  0  0  0  0  0  0  0  0
    2.5228    1.3344    0.0000 C   0  0  0  0  0  0  0  0  0
    1.8083    0.9219    0.0000 C   0  0  0  0  0  0  0  0  0
    1.0938    1.3344    0.0000 C   0  0  0  0  0  0  0  0  0
    0.3794    0.9219    0.0000 Cl  0  0  0  0  0  0  0  0  0
  1  2  1  0  0  0  0
  2  3  4  0  0  0  0
  2 28  4  0  0  0  0
  3  4  4  0  0  0  0
  4  5  1  0  0  0  0
  4 26  4  0  0  0  0
  5  6  1  0  0  0  0
  6  7  4  0  0  0  0
  6 11  4  0  0  0  0
  7  8  4  0  0  0  0
  8  9  4  0  0  0  0
  9 10  4  0  0  0  0
  9 15  1  0  0  0  0
 10 11  4  0  0  0  0
 11 12  1  0  0  0  0
 12 13  1  0  0  0  0
 13 14  1  0  0  0  0
 15 16  2  0  0  0  0
 15 17  1  0  0  0  0
 17 18  1  0  0  0  0
 17 22  1  0  0  0  0
 18 19  1  0  0  0  0
 19 20  1  0  0  0  0
 20 21  1  0  0  0  0
 20 23  1  0  0  0  0
 21 22  1  0  0  0  0
 23 24  1  0  0  0  0
 23 25  1  0  0  0  0
 24 25  1  0  0  0  0
 26 27  4  0  0  0  0
 27 28  4  0  0  0  0
 28 29  1  0  0  0  0
M  END
>  <Name_Molregno>
438879

>  <Dopamine transporter>
6.31

>  <HISTAMINE H3>
7.64

>  <Norepinephrine transporter>
5.49

>  <Serotonin transporter>
8.17

$$$$
438924
  Marvin  02231216192D 0   1.00000     0.00000     0

 29 31  0  0  0  0  0  0  0  0999 V2000
    3.9382    3.5971    0.0000 Cl  0  0  0  0  0  0  0  0  0
    3.9382    2.7721    0.0000 C   0  0  0  0  0  0  0  0  0
    4.6527    2.3596    0.0000 C   0  0  0  0  0  0  0  0  0
    4.6527    1.5346    0.0000 C   0  0  0  0  0  0  0  0  0
    5.3672    1.1221    0.0000 O   0  0  0  0  0  0  0  0  0
    5.3672    0.2971    0.0000 C   0  0  0  0  0  0  0  0  0
    6.0817   -0.1154    0.0000 C   0  0  0  0  0  0  0  0  0
    6.0817   -0.9404    0.0000 C   0  0  0  0  0  0  0  0  0
    5.3672   -1.3529    0.0000 C   0  0  0  0  0  0  0  0  0
    4.6527   -0.9404    0.0000 C   0  0  0  0  0  0  0  0  0
    4.6527   -0.1154    0.0000 C   0  0  0  0  0  0  0  0  0
    3.9382    0.2971    0.0000 C   0  0  0  0  0  0  0  0  0
    3.2238   -0.1154    0.0000 N   0  0  0  0  0  0  0  0  0
    2.5093    0.2971    0.0000 C   0  0  0  0  0  0  0  0  0
    5.3672   -2.1779    0.0000 C   0  0  0  0  0  0  0  0  0
    6.0817   -2.5904    0.0000 O   0  0  0  0  0  0  0  0  0
    4.6527   -2.5904    0.0000 N   0  0  0  0  0  0  0  0  0
    4.6527   -3.4154    0.0000 C   0  0  0  0  0  0  0  0  0
    3.9382   -3.8279    0.0000 C   0  0  0  0  0  0  0  0  0
    3.2238   -3.4154    0.0000 N   0  0  0  0  0  0  0  0  0
    3.2238   -2.5904    0.0000 C   0  0  0  0  0  0  0  0  0
    3.9382   -2.1779    0.0000 C   0  0  0  0  0  0  0  0  0
    2.5093   -3.8279    0.0000 C   0  0  0  0  0  0  0  0  0
    1.7948   -3.4154    0.0000 C   0  0  0  0  0  0  0  0  0
    2.5093   -4.6529    0.0000 C   0  0  0  0  0  0  0  0  0
    3.9382    1.1221    0.0000 C   0  0  0  0  0  0  0  0  0
    3.2238    1.5346    0.0000 C   0  0  0  0  0  0  0  0  0
    3.2238    2.3596    0.0000 C   0  0  0  0  0  0  0  0  0
    2.5093    2.7721    0.0000 Cl  0  0  0  0  0  0  0  0  0
  1  2  1  0  0  0  0
  2  3  4  0  0  0  0
  2 28  4  0  0  0  0
  3  4  4  0  0  0  0
  4  5  1  0  0  0  0
  4 26  4  0  0  0  0
  5  6  1  0  0  0  0
  6  7  4  0  0  0  0
  6 11  4  0  0  0  0
  7  8  4  0  0  0  0
  8  9  4  0  0  0  0
  9 10  4  0  0  0  0
  9 15  1  0  0  0  0
 10 11  4  0  0  0  0
 11 12  1  0  0  0  0
 12 13  1  0  0  0  0
 13 14  1  0  0  0  0
 15 16  2  0  0  0  0
 15 17  1  0  0  0  0
 17 18  1  0  0  0  0
 17 22  1  0  0  0  0
 18 19  1  0  0  0  0
 19 20  1  0  0  0  0
 20 21  1  0  0  0  0
 20 23  1  0  0  0  0
 21 22  1  0  0  0  0
 23 24  1  0  0  0  0
 23 25  1  0  0  0  0
 26 27  4  0  0  0  0
 27 28  4  0  0  0  0
 28 29  1  0  0  0  0
M  END
>  <Name_Molregno>
438924

>  <Dopamine transporter>
6.48

>  <HISTAMINE H3>
8.62

>  <Norepinephrine transporter>
7.09

>  <Serotonin transporter>
8.2

$$$$
439103
  Marvin  02231216192D 0   1.00000     0.00000     0

 30 33  0  0  0  0  0  0  0  0999 V2000
   -0.4560    2.3389    0.0000 S   0  0  0  0  0  0  0  0  0
   -0.4560    1.5139    0.0000 C   0  0  0  0  0  0  0  0  0
    0.2585    2.7514    0.0000 C   0  0  0  0  0  0  0  0  0
    0.2585    3.5764    0.0000 C   0  0  0  0  0  0  0  0  0
    0.9730    3.9889    0.0000 C   0  0  0  0  0  0  0  0  0
    1.6874    3.5764    0.0000 C   0  0  0  0  0  0  0  0  0
    2.4019    3.9889    0.0000 O   0  0  0  0  0  0  0  0  0
    3.1164    3.5764    0.0000 C   0  0  0  0  0  0  0  0  0
    3.8309    3.9889    0.0000 C   0  0  0  0  0  0  0  0  0
    4.5453    3.5764    0.0000 C   0  0  0  0  0  0  0  0  0
    4.5453    2.7514    0.0000 C   0  0  0  0  0  0  0  0  0
    3.8309    2.3389    0.0000 C   0  0  0  0  0  0  0  0  0
    3.1164    2.7514    0.0000 C   0  0  0  0  0  0  0  0  0
    2.4019    2.3389    0.0000 C   0  0  0  0  0  0  0  0  0
    2.4019    1.5139    0.0000 N   0  0  0  0  0  0  0  0  0
    1.6874    1.1014    0.0000 C   0  0  0  0  0  0  0  0  0
    5.2598    2.3389    0.0000 C   0  0  0  0  0  0  0  0  0
    5.9743    2.7514    0.0000 O   0  0  0  0  0  0  0  0  0
    5.2598    1.5139    0.0000 N   0  0  0  0  0  0  0  0  0
    5.9743    1.1014    0.0000 C   0  0  0  0  0  0  0  0  0
    5.9743    0.2764    0.0000 C   0  0  0  0  0  0  0  0  0
    5.2598   -0.1361    0.0000 N   0  0  0  0  0  0  0  0  0
    4.5453    0.2764    0.0000 C   0  0  0  0  0  0  0  0  0
    4.5453    1.1014    0.0000 C   0  0  0  0  0  0  0  0  0
    5.2598   -0.9611    0.0000 C   0  0  0  0  0  0  0  0  0
    5.6723   -1.6755    0.0000 C   0  0  0  0  0  0  0  0  0
    4.8473   -1.6755    0.0000 C   0  0  0  0  0  0  0  0  0
    1.6874    2.7514    0.0000 C   0  0  0  0  0  0  0  0  0
    0.9730    2.3389    0.0000 C   0  0  0  0  0  0  0  0  0
    0.9730    1.5139    0.0000 C   0  0  0  0  0  0  0  0  0
  1  2  1  0  0  0  0
  1  3  1  0  0  0  0
  3  4  4  0  0  0  0
  3 29  4  0  0  0  0
  4  5  4  0  0  0  0
  5  6  4  0  0  0  0
  6  7  1  0  0  0  0
  6 28  4  0  0  0  0
  7  8  1  0  0  0  0
  8  9  4  0  0  0  0
  8 13  4  0  0  0  0
  9 10  4  0  0  0  0
 10 11  4  0  0  0  0
 11 12  4  0  0  0  0
 11 17  1  0  0  0  0
 12 13  4  0  0  0  0
 13 14  1  0  0  0  0
 14 15  1  0  0  0  0
 15 16  1  0  0  0  0
 17 18  2  0  0  0  0
 17 19  1  0  0  0  0
 19 20  1  0  0  0  0
 19 24  1  0  0  0  0
 20 21  1  0  0  0  0
 21 22  1  0  0  0  0
 22 23  1  0  0  0  0
 22 25  1  0  0  0  0
 23 24  1  0  0  0  0
 25 26  1  0  0  0  0
 25 27  1  0  0  0  0
 26 27  1  0  0  0  0
 28 29  4  0  0  0  0
 29 30  1  0  0  0  0
M  END
>  <Name_Molregno>
439103

>  <Dopamine transporter>
5.15

>  <HISTAMINE H3>
7.68

>  <Norepinephrine transporter>
5.32

>  <Serotonin transporter>
7.96

$$$$
440306
  Marvin  02231216192D 0   1.00000     0.00000     0

 25 27  0  0  1  0  0  0  0  0999 V2000
    0.3182    0.1897    0.0000 S   0  0  0  0  0  0  0  0  0
   -0.3963   -0.2228    0.0000 C   0  0  0  0  0  0  0  0  0
   -0.3963   -1.0478    0.0000 C   0  0  0  0  0  0  0  0  0
    0.3182   -1.4603    0.0000 O   0  0  0  0  0  0  0  0  0
    0.3182   -2.2853    0.0000 C   0  0  0  0  0  0  0  0  0
   -0.3963   -2.6978    0.0000 C   0  0  0  0  0  0  0  0  0
   -1.1108   -2.2853    0.0000 N   0  0  0  0  0  0  0  0  0
   -1.1108   -1.4603    0.0000 C   0  0  0  0  0  0  0  0  0
   -1.1108    0.1897    0.0000 C   0  0  0  0  0  0  0  0  0
   -1.8252   -0.2228    0.0000 C   0  0  0  0  0  0  0  0  0
   -2.5397    0.1897    0.0000 C   0  0  0  0  0  0  0  0  0
   -2.5397    1.0147    0.0000 C   0  0  0  0  0  0  0  0  0
   -1.8252    1.4272    0.0000 C   0  0  0  0  0  0  0  0  0
   -1.1108    1.0147    0.0000 C   0  0  0  0  0  0  0  0  0
    0.3182    1.0147    0.0000 C   0  0  0  0  0  0  0  0  0
   -0.3963    1.4272    0.0000 C   0  0  0  0  0  0  0  0  0
   -0.3963    2.2522    0.0000 C   0  0  0  0  0  0  0  0  0
    0.3182    2.6647    0.0000 C   0  0  0  0  0  0  0  0  0
    1.0326    2.2522    0.0000 C   0  0  0  0  0  0  0  0  0
    1.0326    1.4272    0.0000 C   0  0  0  0  0  0  0  0  0
    1.7471    1.0147    0.0000 O   0  0  0  0  0  0  0  0  0
    1.7471    0.1897    0.0000 C   0  0  0  0  0  0  0  0  0
    2.4616   -0.2228    0.0000 C   0  0  0  0  0  0  0  0  0
    3.1761    0.1897    0.0000 C   0  0  0  0  0  0  0  0  0
    3.1761    1.0147    0.0000 F   0  0  0  0  0  0  0  0  0
  1  2  1  0  0  0  0
  1 15  1  0  0  0  0
  2  3  1  0  0  0  0
  2  9  1  0  0  0  0
  3  4  1  0  0  0  0
  3  8  1  0  0  0  0
  4  5  1  0  0  0  0
  5  6  1  0  0  0  0
  6  7  1  0  0  0  0
  7  8  1  0  0  0  0
  9 10  4  0  0  0  0
  9 14  4  0  0  0  0
 10 11  4  0  0  0  0
 11 12  4  0  0  0  0
 12 13  4  0  0  0  0
 13 14  4  0  0  0  0
 15 16  4  0  0  0  0
 15 20  4  0  0  0  0
 16 17  4  0  0  0  0
 17 18  4  0  0  0  0
 18 19  4  0  0  0  0
 19 20  4  0  0  0  0
 20 21  1  0  0  0  0
 21 22  1  0  0  0  0
 22 23  1  0  0  0  0
 23 24  1  0  0  0  0
 24 25  1  0  0  0  0
M  END
>  <Name_Molregno>
440306

>  <Dopamine transporter>
5.05

>  <Norepinephrine transporter>
8.92

>  <Serotonin transporter>
6.92

$$$$
440307
  Marvin  02231216192D 0   1.00000     0.00000     0

 24 26  0  0  1  0  0  0  0  0999 V2000
    0.7457   -0.3438    0.0000 S   0  0  0  0  0  0  0  0  0
    0.0312   -0.7562    0.0000 C   0  0  0  0  0  0  0  0  0
    0.0312   -1.5812    0.0000 C   0  0  0  0  0  0  0  0  0
    0.7457   -1.9938    0.0000 O   0  0  0  0  0  0  0  0  0
    0.7457   -2.8188    0.0000 C   0  0  0  0  0  0  0  0  0
    0.0312   -3.2313    0.0000 C   0  0  0  0  0  0  0  0  0
   -0.6832   -2.8187    0.0000 N   0  0  0  0  0  0  0  0  0
   -0.6832   -1.9937    0.0000 C   0  0  0  0  0  0  0  0  0
   -0.6832   -0.3437    0.0000 C   0  0  0  0  0  0  0  0  0
   -1.3977   -0.7562    0.0000 C   0  0  0  0  0  0  0  0  0
   -2.1122   -0.3437    0.0000 C   0  0  0  0  0  0  0  0  0
   -2.1122    0.4813    0.0000 C   0  0  0  0  0  0  0  0  0
   -1.3977    0.8938    0.0000 C   0  0  0  0  0  0  0  0  0
   -0.6832    0.4813    0.0000 C   0  0  0  0  0  0  0  0  0
    0.7457    0.4812    0.0000 C   0  0  0  0  0  0  0  0  0
    0.0312    0.8938    0.0000 C   0  0  0  0  0  0  0  0  0
    0.0312    1.7188    0.0000 C   0  0  0  0  0  0  0  0  0
    0.7457    2.1313    0.0000 C   0  0  0  0  0  0  0  0  0
    1.4602    1.7187    0.0000 C   0  0  0  0  0  0  0  0  0
    1.4602    0.8937    0.0000 C   0  0  0  0  0  0  0  0  0
    2.1746    0.4812    0.0000 C   0  0  0  0  0  0  0  0  0
    2.1746   -0.3438    0.0000 O   0  0  0  0  0  0  0  0  0
    2.8891   -0.7563    0.0000 C   0  0  0  0  0  0  0  0  0
    2.8891    0.8937    0.0000 O   0  0  0  0  0  0  0  0  0
  1  2  1  0  0  0  0
  1 15  1  0  0  0  0
  2  3  1  0  0  0  0
  2  9  1  0  0  0  0
  3  4  1  0  0  0  0
  3  8  1  0  0  0  0
  4  5  1  0  0  0  0
  5  6  1  0  0  0  0
  6  7  1  0  0  0  0
  7  8  1  0  0  0  0
  9 10  4  0  0  0  0
  9 14  4  0  0  0  0
 10 11  4  0  0  0  0
 11 12  4  0  0  0  0
 12 13  4  0  0  0  0
 13 14  4  0  0  0  0
 15 16  4  0  0  0  0
 15 20  4  0  0  0  0
 16 17  4  0  0  0  0
 17 18  4  0  0  0  0
 18 19  4  0  0  0  0
 19 20  4  0  0  0  0
 20 21  1  0  0  0  0
 21 22  1  0  0  0  0
 21 24  2  0  0  0  0
 22 23  1  0  0  0  0
M  END
>  <Name_Molregno>
440307

>  <Dopamine transporter>
4.52

>  <Norepinephrine transporter>
8.87

>  <Serotonin transporter>
6.3

$$$$
440308
  Marvin  02231216192D 0   1.00000     0.00000     0

 24 26  0  0  1  0  0  0  0  0999 V2000
    0.1722    0.6501    0.0000 S   0  0  0  0  0  0  0  0  0
    0.8867    0.2376    0.0000 C   0  0  0  0  0  0  0  0  0
    0.8867   -0.5874    0.0000 C   0  0  0  0  0  0  0  0  0
    1.6011   -0.9999    0.0000 O   0  0  0  0  0  0  0  0  0
    1.6011   -1.8249    0.0000 C   0  0  0  0  0  0  0  0  0
    0.8867   -2.2374    0.0000 C   0  0  0  0  0  0  0  0  0
    0.1722   -1.8249    0.0000 N   0  0  0  0  0  0  0  0  0
    0.1722   -0.9999    0.0000 C   0  0  0  0  0  0  0  0  0
    1.6011    0.6501    0.0000 C   0  0  0  0  0  0  0  0  0
    1.6011    1.4751    0.0000 C   0  0  0  0  0  0  0  0  0
    2.3156    1.8876    0.0000 C   0  0  0  0  0  0  0  0  0
    3.0301    1.4751    0.0000 C   0  0  0  0  0  0  0  0  0
    3.0301    0.6501    0.0000 C   0  0  0  0  0  0  0  0  0
    2.3156    0.2376    0.0000 C   0  0  0  0  0  0  0  0  0
   -0.5423    0.2376    0.0000 C   0  0  0  0  0  0  0  0  0
   -0.5423   -0.5874    0.0000 C   0  0  0  0  0  0  0  0  0
   -1.2567   -0.9999    0.0000 C   0  0  0  0  0  0  0  0  0
   -1.9712   -0.5874    0.0000 C   0  0  0  0  0  0  0  0  0
   -1.9712    0.2376    0.0000 C   0  0  0  0  0  0  0  0  0
   -1.2567    0.6501    0.0000 C   0  0  0  0  0  0  0  0  0
   -1.2567    1.4751    0.0000 O   0  0  0  0  0  0  0  0  0
   -1.9712    1.8876    0.0000 C   0  0  0  0  0  0  0  0  0
   -1.9712    2.7126    0.0000 C   0  0  0  0  0  0  0  0  0
   -2.6857    3.1251    0.0000 F   0  0  0  0  0  0  0  0  0
  1  2  1  0  0  0  0
  1 15  1  0  0  0  0
  2  3  1  0  0  0  0
  2  9  1  0  0  0  0
  3  4  1  0  0  0  0
  3  8  1  0  0  0  0
  4  5  1  0  0  0  0
  5  6  1  0  0  0  0
  6  7  1  0  0  0  0
  7  8  1  0  0  0  0
  9 10  4  0  0  0  0
  9 14  4  0  0  0  0
 10 11  4  0  0  0  0
 11 12  4  0  0  0  0
 12 13  4  0  0  0  0
 13 14  4  0  0  0  0
 15 16  4  0  0  0  0
 15 20  4  0  0  0  0
 16 17  4  0  0  0  0
 17 18  4  0  0  0  0
 18 19  4  0  0  0  0
 19 20  4  0  0  0  0
 20 21  1  0  0  0  0
 21 22  1  0  0  0  0
 22 23  1  0  0  0  0
 23 24  1  0  0  0  0
M  END
>  <Name_Molregno>
440308

>  <Dopamine transporter>
5

>  <Norepinephrine transporter>
9

>  <Serotonin transporter>
6.13

$$$$
440332
  Marvin  02231216192D 0   1.00000     0.00000     0

 24 26  0  0  1  0  0  0  0  0999 V2000
    2.4183   -1.6871    0.0000 O   0  0  0  0  0  0  0  0  0
    2.4183   -2.5121    0.0000 C   0  0  0  0  0  0  0  0  0
    1.7038   -2.9246    0.0000 C   0  0  0  0  0  0  0  0  0
    0.9894   -2.5121    0.0000 N   0  0  0  0  0  0  0  0  0
    0.9894   -1.6871    0.0000 C   0  0  0  0  0  0  0  0  0
    1.7038   -1.2746    0.0000 C   0  0  0  0  0  0  0  0  0
    1.7038   -0.4496    0.0000 C   0  0  0  0  0  0  0  0  0
    2.4183   -0.0371    0.0000 O   0  0  0  0  0  0  0  0  0
    2.4183    0.7879    0.0000 C   0  0  0  0  0  0  0  0  0
    1.7038    1.2004    0.0000 C   0  0  0  0  0  0  0  0  0
    1.7038    2.0254    0.0000 C   0  0  0  0  0  0  0  0  0
    2.4183    2.4379    0.0000 C   0  0  0  0  0  0  0  0  0
    3.1328    2.0254    0.0000 C   0  0  0  0  0  0  0  0  0
    3.1328    1.2004    0.0000 C   0  0  0  0  0  0  0  0  0
    3.8472    0.7879    0.0000 C   0  0  0  0  0  0  0  0  0
    3.8472   -0.0371    0.0000 O   0  0  0  0  0  0  0  0  0
    4.5617   -0.4496    0.0000 C   0  0  0  0  0  0  0  0  0
    4.5617    1.2004    0.0000 O   0  0  0  0  0  0  0  0  0
    0.9894   -0.0371    0.0000 C   0  0  0  0  0  0  0  0  0
    0.2749   -0.4496    0.0000 C   0  0  0  0  0  0  0  0  0
   -0.4396   -0.0371    0.0000 C   0  0  0  0  0  0  0  0  0
   -0.4396    0.7879    0.0000 C   0  0  0  0  0  0  0  0  0
    0.2749    1.2004    0.0000 C   0  0  0  0  0  0  0  0  0
    0.9894    0.7879    0.0000 C   0  0  0  0  0  0  0  0  0
  1  2  1  0  0  0  0
  1  6  1  0  0  0  0
  2  3  1  0  0  0  0
  3  4  1  0  0  0  0
  4  5  1  0  0  0  0
  5  6  1  0  0  0  0
  6  7  1  0  0  0  0
  7  8  1  0  0  0  0
  7 19  1  0  0  0  0
  8  9  1  0  0  0  0
  9 10  4  0  0  0  0
  9 14  4  0  0  0  0
 10 11  4  0  0  0  0
 11 12  4  0  0  0  0
 12 13  4  0  0  0  0
 13 14  4  0  0  0  0
 14 15  1  0  0  0  0
 15 16  1  0  0  0  0
 15 18  2  0  0  0  0
 16 17  1  0  0  0  0
 19 20  4  0  0  0  0
 19 24  4  0  0  0  0
 20 21  4  0  0  0  0
 21 22  4  0  0  0  0
 22 23  4  0  0  0  0
 23 24  4  0  0  0  0
M  END
>  <Name_Molregno>
440332

>  <Dopamine transporter>
5.52

>  <Norepinephrine transporter>
8.88

>  <Serotonin transporter>
6.21

$$$$
440334
  Marvin  02231216192D 0   1.00000     0.00000     0

 22 24  0  0  1  0  0  0  0  0999 V2000
    0.0392    2.8075    0.0000 S   0  0  0  0  0  0  0  0  0
    0.7537    3.2200    0.0000 C   0  0  0  0  0  0  0  0  0
    0.0392    1.9825    0.0000 C   0  0  0  0  0  0  0  0  0
    0.7537    1.5700    0.0000 C   0  0  0  0  0  0  0  0  0
    0.7537    0.7450    0.0000 C   0  0  0  0  0  0  0  0  0
    0.0392    0.3325    0.0000 C   0  0  0  0  0  0  0  0  0
   -0.6753    0.7450    0.0000 C   0  0  0  0  0  0  0  0  0
   -0.6753    1.5700    0.0000 C   0  0  0  0  0  0  0  0  0
   -1.3898    1.9825    0.0000 O   0  0  0  0  0  0  0  0  0
   -2.1042    1.5700    0.0000 C   0  0  0  0  0  0  0  0  0
   -2.8187    1.9825    0.0000 C   0  0  0  0  0  0  0  0  0
   -3.5332    1.5700    0.0000 O   0  0  0  0  0  0  0  0  0
   -4.2476    1.9825    0.0000 C   0  0  0  0  0  0  0  0  0
   -4.2476    2.8075    0.0000 C   0  0  0  0  0  0  0  0  0
   -3.5332    3.2200    0.0000 N   0  0  0  0  0  0  0  0  0
   -2.8187    2.8075    0.0000 C   0  0  0  0  0  0  0  0  0
   -2.1042    0.7450    0.0000 C   0  0  0  0  0  0  0  0  0
   -1.3898    0.3325    0.0000 C   0  0  0  0  0  0  0  0  0
   -1.3898   -0.4925    0.0000 C   0  0  0  0  0  0  0  0  0
   -2.1042   -0.9050    0.0000 C   0  0  0  0  0  0  0  0  0
   -2.8187   -0.4925    0.0000 C   0  0  0  0  0  0  0  0  0
   -2.8187    0.3325    0.0000 C   0  0  0  0  0  0  0  0  0
  1  2  1  0  0  0  0
  1  3  1  0  0  0  0
  3  4  4  0  0  0  0
  3  8  4  0  0  0  0
  4  5  4  0  0  0  0
  5  6  4  0  0  0  0
  6  7  4  0  0  0  0
  7  8  4  0  0  0  0
  8  9  1  0  0  0  0
  9 10  1  0  0  0  0
 10 11  1  0  0  0  0
 10 17  1  0  0  0  0
 11 12  1  0  0  0  0
 11 16  1  0  0  0  0
 12 13  1  0  0  0  0
 13 14  1  0  0  0  0
 14 15  1  0  0  0  0
 15 16  1  0  0  0  0
 17 18  4  0  0  0  0
 17 22  4  0  0  0  0
 18 19  4  0  0  0  0
 19 20  4  0  0  0  0
 20 21  4  0  0  0  0
 21 22  4  0  0  0  0
M  END
>  <Name_Molregno>
440334

>  <Dopamine transporter>
5.22

>  <Norepinephrine transporter>
8.69

>  <Serotonin transporter>
7.04

$$$$
447680
  Marvin  02231216192D 0   1.00000     0.00000     0

 23 25  0  0  1  0  0  0  0  0999 V2000
    2.3164    4.9622    0.0000 O   0  0  0  0  0  0  0  0  0
    1.6019    5.3747    0.0000 C   0  0  0  0  0  0  0  0  0
    2.3164    4.1372    0.0000 C   0  0  0  0  0  0  0  0  0
    3.0309    3.7247    0.0000 C   0  0  0  0  0  0  0  0  0
    3.0309    2.8997    0.0000 C   0  0  0  0  0  0  0  0  0
    2.3164    2.4872    0.0000 C   0  0  0  0  0  0  0  0  0
    1.6019    2.8997    0.0000 C   0  0  0  0  0  0  0  0  0
    1.6019    3.7247    0.0000 C   0  0  0  0  0  0  0  0  0
    2.3164    1.6622    0.0000 C   0  0  0  0  0  0  0  0  0
    3.0309    1.2497    0.0000 C   0  0  0  0  0  0  0  0  0
    3.0309    0.4247    0.0000 N   0  0  0  0  0  0  0  0  0
    3.7454    0.0122    0.0000 C   0  0  0  0  0  0  0  0  0
    3.7454   -0.8128    0.0000 C   0  0  0  0  0  0  0  0  0
    3.0309   -1.2253    0.0000 N   0  0  0  0  0  0  0  0  0
    2.3164   -0.8128    0.0000 C   0  0  0  0  0  0  0  0  0
    2.3164    0.0122    0.0000 C   0  0  0  0  0  0  0  0  0
    1.6019    1.2497    0.0000 C   0  0  0  0  0  0  0  0  0
    1.3198    2.0250    0.0000 O   0  0  0  0  0  0  0  0  0
    2.1322    0.6178    0.0000 C   0  0  0  0  0  0  0  0  0
    1.8501   -0.1575    0.0000 C   0  0  0  0  0  0  0  0  0
    1.0376   -0.3007    0.0000 C   0  0  0  0  0  0  0  0  0
    0.5073    0.3312    0.0000 C   0  0  0  0  0  0  0  0  0
    0.7895    1.1065    0.0000 C   0  0  0  0  0  0  0  0  0
  1  2  1  0  0  0  0
  1  3  1  0  0  0  0
  3  4  4  0  0  0  0
  3  8  4  0  0  0  0
  4  5  4  0  0  0  0
  5  6  4  0  0  0  0
  6  7  4  0  0  0  0
  6  9  1  0  0  0  0
  7  8  4  0  0  0  0
  9 10  1  0  0  0  0
  9 17  1  0  0  0  0
 10 11  1  0  0  0  0
 11 12  1  0  0  0  0
 11 16  1  0  0  0  0
 12 13  1  0  0  0  0
 13 14  1  0  0  0  0
 14 15  1  0  0  0  0
 15 16  1  0  0  0  0
 17 18  1  0  0  0  0
 17 19  1  0  0  0  0
 17 23  1  0  0  0  0
 19 20  1  0  0  0  0
 20 21  1  0  0  0  0
 21 22  1  0  0  0  0
 22 23  1  0  0  0  0
M  END
>  <Name_Molregno>
447680

>  <Norepinephrine transporter>
6.28

$$$$
447681
  Marvin  02231216192D 0   1.00000     0.00000     0

 24 26  0  0  1  0  0  0  0  0999 V2000
   -1.2253    5.0505    0.0000 O   0  0  0  0  0  0  0  0  0
   -1.9398    5.4630    0.0000 C   0  0  0  0  0  0  0  0  0
   -1.2253    4.2255    0.0000 C   0  0  0  0  0  0  0  0  0
   -0.5109    3.8130    0.0000 C   0  0  0  0  0  0  0  0  0
   -0.5109    2.9880    0.0000 C   0  0  0  0  0  0  0  0  0
   -1.2253    2.5755    0.0000 C   0  0  0  0  0  0  0  0  0
   -1.9398    2.9880    0.0000 C   0  0  0  0  0  0  0  0  0
   -1.9398    3.8130    0.0000 C   0  0  0  0  0  0  0  0  0
    0.2036    2.5755    0.0000 C   0  0  0  0  0  0  0  0  0
    0.9181    2.9880    0.0000 C   0  0  0  0  0  0  0  0  0
    1.6325    2.5755    0.0000 N   0  0  0  0  0  0  0  0  0
    2.3470    2.9880    0.0000 C   0  0  0  0  0  0  0  0  0
    3.0615    2.5755    0.0000 C   0  0  0  0  0  0  0  0  0
    3.0615    1.7505    0.0000 N   0  0  0  0  0  0  0  0  0
    2.3470    1.3380    0.0000 C   0  0  0  0  0  0  0  0  0
    1.6325    1.7505    0.0000 C   0  0  0  0  0  0  0  0  0
    3.7760    1.3380    0.0000 C   0  0  0  0  0  0  0  0  0
    0.2036    1.7505    0.0000 C   0  0  0  0  0  0  0  0  0
   -0.6089    1.8938    0.0000 O   0  0  0  0  0  0  0  0  0
    1.0161    1.8938    0.0000 C   0  0  0  0  0  0  0  0  0
    1.5464    1.2618    0.0000 C   0  0  0  0  0  0  0  0  0
    1.2642    0.4866    0.0000 C   0  0  0  0  0  0  0  0  0
    0.4517    0.3433    0.0000 C   0  0  0  0  0  0  0  0  0
   -0.0786    0.9753    0.0000 C   0  0  0  0  0  0  0  0  0
  1  2  1  0  0  0  0
  1  3  1  0  0  0  0
  3  4  4  0  0  0  0
  3  8  4  0  0  0  0
  4  5  4  0  0  0  0
  5  6  4  0  0  0  0
  5  9  1  0  0  0  0
  6  7  4  0  0  0  0
  7  8  4  0  0  0  0
  9 10  1  0  0  0  0
  9 18  1  0  0  0  0
 10 11  1  0  0  0  0
 11 12  1  0  0  0  0
 11 16  1  0  0  0  0
 12 13  1  0  0  0  0
 13 14  1  0  0  0  0
 14 15  1  0  0  0  0
 14 17  1  0  0  0  0
 15 16  1  0  0  0  0
 18 19  1  0  0  0  0
 18 20  1  0  0  0  0
 18 24  1  0  0  0  0
 20 21  1  0  0  0  0
 21 22  1  0  0  0  0
 22 23  1  0  0  0  0
 23 24  1  0  0  0  0
M  END
>  <Name_Molregno>
447681

>  <Norepinephrine transporter>
6.29

$$$$
447682
  Marvin  02231216192D 0   1.00000     0.00000     0

 23 25  0  0  1  0  0  0  0  0999 V2000
   -1.2266    4.9596    0.0000 O   0  0  0  0  0  0  0  0  0
   -1.9411    5.3721    0.0000 C   0  0  0  0  0  0  0  0  0
   -1.2266    4.1346    0.0000 C   0  0  0  0  0  0  0  0  0
   -0.5122    3.7221    0.0000 C   0  0  0  0  0  0  0  0  0
   -0.5122    2.8971    0.0000 C   0  0  0  0  0  0  0  0  0
   -1.2266    2.4846    0.0000 C   0  0  0  0  0  0  0  0  0
   -1.9411    2.8971    0.0000 C   0  0  0  0  0  0  0  0  0
   -1.9411    3.7221    0.0000 C   0  0  0  0  0  0  0  0  0
    0.2023    2.4846    0.0000 C   0  0  0  0  0  0  0  0  0
    0.9168    2.8971    0.0000 C   0  0  0  0  0  0  0  0  0
    1.6313    2.4846    0.0000 N   0  0  0  0  0  0  0  0  0
    2.3457    2.8971    0.0000 C   0  0  0  0  0  0  0  0  0
    3.0602    2.4846    0.0000 C   0  0  0  0  0  0  0  0  0
    3.0602    1.6596    0.0000 N   0  0  0  0  0  0  0  0  0
    2.3457    1.2471    0.0000 C   0  0  0  0  0  0  0  0  0
    1.6313    1.6596    0.0000 C   0  0  0  0  0  0  0  0  0
    0.2023    1.6596    0.0000 C   0  0  0  0  0  0  0  0  0
   -0.6102    1.8028    0.0000 O   0  0  0  0  0  0  0  0  0
    1.0148    1.8028    0.0000 C   0  0  0  0  0  0  0  0  0
    1.5451    1.1708    0.0000 C   0  0  0  0  0  0  0  0  0
    1.2629    0.3956    0.0000 C   0  0  0  0  0  0  0  0  0
    0.4504    0.2523    0.0000 C   0  0  0  0  0  0  0  0  0
   -0.0799    0.8843    0.0000 C   0  0  0  0  0  0  0  0  0
  1  2  1  0  0  0  0
  1  3  1  0  0  0  0
  3  4  4  0  0  0  0
  3  8  4  0  0  0  0
  4  5  4  0  0  0  0
  5  6  4  0  0  0  0
  5  9  1  0  0  0  0
  6  7  4  0  0  0  0
  7  8  4  0  0  0  0
  9 10  1  0  0  0  0
  9 17  1  0  0  0  0
 10 11  1  0  0  0  0
 11 12  1  0  0  0  0
 11 16  1  0  0  0  0
 12 13  1  0  0  0  0
 13 14  1  0  0  0  0
 14 15  1  0  0  0  0
 15 16  1  0  0  0  0
 17 18  1  0  0  0  0
 17 19  1  0  0  0  0
 17 23  1  0  0  0  0
 19 20  1  0  0  0  0
 20 21  1  0  0  0  0
 21 22  1  0  0  0  0
 22 23  1  0  0  0  0
M  END
>  <Name_Molregno>
447682

>  <Norepinephrine transporter>
6.13

$$$$
447684
  Marvin  02231216192D 0   1.00000     0.00000     0

 27 29  0  0  1  0  0  0  0  0999 V2000
    0.9098    1.7812    0.0000 F   0  0  0  0  0  0  0  0  0
    1.6243    1.3687    0.0000 C   0  0  0  0  0  0  0  0  0
    1.2118    0.6542    0.0000 F   0  0  0  0  0  0  0  0  0
    2.0368    2.0832    0.0000 F   0  0  0  0  0  0  0  0  0
    2.3387    0.9562    0.0000 O   0  0  0  0  0  0  0  0  0
    2.3387    0.1312    0.0000 C   0  0  0  0  0  0  0  0  0
    3.0532   -0.2813    0.0000 C   0  0  0  0  0  0  0  0  0
    3.0532   -1.1063    0.0000 C   0  0  0  0  0  0  0  0  0
    2.3387   -1.5188    0.0000 C   0  0  0  0  0  0  0  0  0
    1.6243   -1.1063    0.0000 C   0  0  0  0  0  0  0  0  0
    1.6243   -0.2813    0.0000 C   0  0  0  0  0  0  0  0  0
    3.7677   -1.5188    0.0000 C   0  0  0  0  0  0  0  0  0
    4.4822   -1.1063    0.0000 C   0  0  0  0  0  0  0  0  0
    5.1966   -1.5188    0.0000 N   0  0  0  0  0  0  0  0  0
    5.9111   -1.1063    0.0000 C   0  0  0  0  0  0  0  0  0
    6.6256   -1.5188    0.0000 C   0  0  0  0  0  0  0  0  0
    6.6256   -2.3438    0.0000 N   0  0  0  0  0  0  0  0  0
    5.9111   -2.7563    0.0000 C   0  0  0  0  0  0  0  0  0
    5.1966   -2.3438    0.0000 C   0  0  0  0  0  0  0  0  0
    7.3400   -2.7563    0.0000 C   0  0  0  0  0  0  0  0  0
    3.7677   -2.3438    0.0000 C   0  0  0  0  0  0  0  0  0
    2.9552   -2.2006    0.0000 O   0  0  0  0  0  0  0  0  0
    4.5802   -2.2006    0.0000 C   0  0  0  0  0  0  0  0  0
    5.1105   -2.8325    0.0000 C   0  0  0  0  0  0  0  0  0
    4.8283   -3.6078    0.0000 C   0  0  0  0  0  0  0  0  0
    4.0158   -3.7510    0.0000 C   0  0  0  0  0  0  0  0  0
    3.4855   -3.1191    0.0000 C   0  0  0  0  0  0  0  0  0
  1  2  1  0  0  0  0
  2  3  1  0  0  0  0
  2  4  1  0  0  0  0
  2  5  1  0  0  0  0
  5  6  1  0  0  0  0
  6  7  4  0  0  0  0
  6 11  4  0  0  0  0
  7  8  4  0  0  0  0
  8  9  4  0  0  0  0
  8 12  1  0  0  0  0
  9 10  4  0  0  0  0
 10 11  4  0  0  0  0
 12 13  1  0  0  0  0
 12 21  1  0  0  0  0
 13 14  1  0  0  0  0
 14 15  1  0  0  0  0
 14 19  1  0  0  0  0
 15 16  1  0  0  0  0
 16 17  1  0  0  0  0
 17 18  1  0  0  0  0
 17 20  1  0  0  0  0
 18 19  1  0  0  0  0
 21 22  1  0  0  0  0
 21 23  1  0  0  0  0
 21 27  1  0  0  0  0
 23 24  1  0  0  0  0
 24 25  1  0  0  0  0
 25 26  1  0  0  0  0
 26 27  1  0  0  0  0
M  END
>  <Name_Molregno>
447684

>  <Norepinephrine transporter>
6.82

$$$$
447770
  Marvin  02231216192D 0   1.00000     0.00000     0

 23 25  0  0  1  0  0  0  0  0999 V2000
   -0.9746    1.2670    0.0000 F   0  0  0  0  0  0  0  0  0
   -0.9746    0.4420    0.0000 C   0  0  0  0  0  0  0  0  0
   -0.2601    0.0295    0.0000 C   0  0  0  0  0  0  0  0  0
   -0.2601   -0.7955    0.0000 C   0  0  0  0  0  0  0  0  0
   -0.9746   -1.2080    0.0000 C   0  0  0  0  0  0  0  0  0
   -1.6891   -0.7955    0.0000 C   0  0  0  0  0  0  0  0  0
   -1.6891    0.0295    0.0000 C   0  0  0  0  0  0  0  0  0
   -0.9746   -2.0330    0.0000 C   0  0  0  0  0  0  0  0  0
   -0.2601   -2.4455    0.0000 C   0  0  0  0  0  0  0  0  0
   -0.2601   -3.2705    0.0000 N   0  0  0  0  0  0  0  0  0
    0.4543   -3.6830    0.0000 C   0  0  0  0  0  0  0  0  0
    0.4543   -4.5080    0.0000 C   0  0  0  0  0  0  0  0  0
   -0.2601   -4.9205    0.0000 N   0  0  0  0  0  0  0  0  0
   -0.9746   -4.5080    0.0000 C   0  0  0  0  0  0  0  0  0
   -0.9746   -3.6830    0.0000 C   0  0  0  0  0  0  0  0  0
   -0.2601   -5.7455    0.0000 C   0  0  0  0  0  0  0  0  0
   -1.6891   -2.4455    0.0000 C   0  0  0  0  0  0  0  0  0
   -1.9712   -1.6702    0.0000 O   0  0  0  0  0  0  0  0  0
   -1.1588   -3.0774    0.0000 C   0  0  0  0  0  0  0  0  0
   -1.4409   -3.8527    0.0000 C   0  0  0  0  0  0  0  0  0
   -2.2534   -3.9959    0.0000 C   0  0  0  0  0  0  0  0  0
   -2.7837   -3.3640    0.0000 C   0  0  0  0  0  0  0  0  0
   -2.5015   -2.5887    0.0000 C   0  0  0  0  0  0  0  0  0
  1  2  1  0  0  0  0
  2  3  4  0  0  0  0
  2  7  4  0  0  0  0
  3  4  4  0  0  0  0
  4  5  4  0  0  0  0
  5  6  4  0  0  0  0
  5  8  1  0  0  0  0
  6  7  4  0  0  0  0
  8  9  1  0  0  0  0
  8 17  1  0  0  0  0
  9 10  1  0  0  0  0
 10 11  1  0  0  0  0
 10 15  1  0  0  0  0
 11 12  1  0  0  0  0
 12 13  1  0  0  0  0
 13 14  1  0  0  0  0
 13 16  1  0  0  0  0
 14 15  1  0  0  0  0
 17 18  1  0  0  0  0
 17 19  1  0  0  0  0
 17 23  1  0  0  0  0
 19 20  1  0  0  0  0
 20 21  1  0  0  0  0
 21 22  1  0  0  0  0
 22 23  1  0  0  0  0
M  END
>  <Name_Molregno>
447770

>  <Norepinephrine transporter>
5.86

$$$$
447771
  Marvin  02231216192D 0   1.00000     0.00000     0

 22 24  0  0  1  0  0  0  0  0999 V2000
   -1.0849    1.1671    0.0000 F   0  0  0  0  0  0  0  0  0
   -1.0849    0.3421    0.0000 C   0  0  0  0  0  0  0  0  0
   -0.3705   -0.0704    0.0000 C   0  0  0  0  0  0  0  0  0
   -0.3705   -0.8954    0.0000 C   0  0  0  0  0  0  0  0  0
   -1.0849   -1.3079    0.0000 C   0  0  0  0  0  0  0  0  0
   -1.7994   -0.8954    0.0000 C   0  0  0  0  0  0  0  0  0
   -1.7994   -0.0704    0.0000 C   0  0  0  0  0  0  0  0  0
   -1.0849   -2.1329    0.0000 C   0  0  0  0  0  0  0  0  0
   -0.3705   -2.5454    0.0000 C   0  0  0  0  0  0  0  0  0
   -0.3705   -3.3704    0.0000 N   0  0  0  0  0  0  0  0  0
    0.3440   -3.7829    0.0000 C   0  0  0  0  0  0  0  0  0
    0.3440   -4.6079    0.0000 C   0  0  0  0  0  0  0  0  0
   -0.3705   -5.0204    0.0000 N   0  0  0  0  0  0  0  0  0
   -1.0849   -4.6079    0.0000 C   0  0  0  0  0  0  0  0  0
   -1.0849   -3.7829    0.0000 C   0  0  0  0  0  0  0  0  0
   -1.7994   -2.5454    0.0000 C   0  0  0  0  0  0  0  0  0
   -2.0816   -1.7702    0.0000 O   0  0  0  0  0  0  0  0  0
   -1.2691   -3.1774    0.0000 C   0  0  0  0  0  0  0  0  0
   -1.5513   -3.9527    0.0000 C   0  0  0  0  0  0  0  0  0
   -2.3637   -4.0959    0.0000 C   0  0  0  0  0  0  0  0  0
   -2.8940   -3.4639    0.0000 C   0  0  0  0  0  0  0  0  0
   -2.6119   -2.6887    0.0000 C   0  0  0  0  0  0  0  0  0
  1  2  1  0  0  0  0
  2  3  4  0  0  0  0
  2  7  4  0  0  0  0
  3  4  4  0  0  0  0
  4  5  4  0  0  0  0
  5  6  4  0  0  0  0
  5  8  1  0  0  0  0
  6  7  4  0  0  0  0
  8  9  1  0  0  0  0
  8 16  1  0  0  0  0
  9 10  1  0  0  0  0
 10 11  1  0  0  0  0
 10 15  1  0  0  0  0
 11 12  1  0  0  0  0
 12 13  1  0  0  0  0
 13 14  1  0  0  0  0
 14 15  1  0  0  0  0
 16 17  1  0  0  0  0
 16 18  1  0  0  0  0
 16 22  1  0  0  0  0
 18 19  1  0  0  0  0
 19 20  1  0  0  0  0
 20 21  1  0  0  0  0
 21 22  1  0  0  0  0
M  END
>  <Name_Molregno>
447771

>  <Norepinephrine transporter>
5.99

$$$$
447772
  Marvin  02231216192D 0   1.00000     0.00000     0

 23 25  0  0  1  0  0  0  0  0999 V2000
   -1.3503    0.0878    0.0000 F   0  0  0  0  0  0  0  0  0
   -1.3503   -0.7372    0.0000 C   0  0  0  0  0  0  0  0  0
   -0.6358   -1.1497    0.0000 C   0  0  0  0  0  0  0  0  0
   -0.6358   -1.9747    0.0000 C   0  0  0  0  0  0  0  0  0
   -1.3503   -2.3872    0.0000 C   0  0  0  0  0  0  0  0  0
   -2.0647   -1.9747    0.0000 C   0  0  0  0  0  0  0  0  0
   -2.0647   -1.1497    0.0000 C   0  0  0  0  0  0  0  0  0
    0.0787   -2.3872    0.0000 C   0  0  0  0  0  0  0  0  0
    0.7932   -1.9747    0.0000 C   0  0  0  0  0  0  0  0  0
    1.5076   -2.3872    0.0000 N   0  0  0  0  0  0  0  0  0
    2.2221   -1.9747    0.0000 C   0  0  0  0  0  0  0  0  0
    2.9366   -2.3872    0.0000 C   0  0  0  0  0  0  0  0  0
    2.9366   -3.2122    0.0000 N   0  0  0  0  0  0  0  0  0
    2.2221   -3.6247    0.0000 C   0  0  0  0  0  0  0  0  0
    1.5076   -3.2122    0.0000 C   0  0  0  0  0  0  0  0  0
    3.6510   -3.6247    0.0000 C   0  0  0  0  0  0  0  0  0
    0.0787   -3.2122    0.0000 C   0  0  0  0  0  0  0  0  0
   -0.7338   -3.0689    0.0000 O   0  0  0  0  0  0  0  0  0
    0.8912   -3.0689    0.0000 C   0  0  0  0  0  0  0  0  0
    1.4215   -3.7009    0.0000 C   0  0  0  0  0  0  0  0  0
    1.1393   -4.4762    0.0000 C   0  0  0  0  0  0  0  0  0
    0.3268   -4.6194    0.0000 C   0  0  0  0  0  0  0  0  0
   -0.2035   -3.9874    0.0000 C   0  0  0  0  0  0  0  0  0
  1  2  1  0  0  0  0
  2  3  4  0  0  0  0
  2  7  4  0  0  0  0
  3  4  4  0  0  0  0
  4  5  4  0  0  0  0
  4  8  1  0  0  0  0
  5  6  4  0  0  0  0
  6  7  4  0  0  0  0
  8  9  1  0  0  0  0
  8 17  1  0  0  0  0
  9 10  1  0  0  0  0
 10 11  1  0  0  0  0
 10 15  1  0  0  0  0
 11 12  1  0  0  0  0
 12 13  1  0  0  0  0
 13 14  1  0  0  0  0
 13 16  1  0  0  0  0
 14 15  1  0  0  0  0
 17 18  1  0  0  0  0
 17 19  1  0  0  0  0
 17 23  1  0  0  0  0
 19 20  1  0  0  0  0
 20 21  1  0  0  0  0
 21 22  1  0  0  0  0
 22 23  1  0  0  0  0
M  END
>  <Name_Molregno>
447772

>  <Norepinephrine transporter>
6.44

$$$$
447773
  Marvin  02231216192D 0   1.00000     0.00000     0

 22 24  0  0  1  0  0  0  0  0999 V2000
   -1.3449    0.0821    0.0000 F   0  0  0  0  0  0  0  0  0
   -1.3449   -0.7429    0.0000 C   0  0  0  0  0  0  0  0  0
   -0.6305   -1.1554    0.0000 C   0  0  0  0  0  0  0  0  0
   -0.6305   -1.9804    0.0000 C   0  0  0  0  0  0  0  0  0
   -1.3449   -2.3929    0.0000 C   0  0  0  0  0  0  0  0  0
   -2.0594   -1.9804    0.0000 C   0  0  0  0  0  0  0  0  0
   -2.0594   -1.1554    0.0000 C   0  0  0  0  0  0  0  0  0
    0.0840   -2.3929    0.0000 C   0  0  0  0  0  0  0  0  0
    0.7985   -1.9804    0.0000 C   0  0  0  0  0  0  0  0  0
    1.5129   -2.3929    0.0000 N   0  0  0  0  0  0  0  0  0
    2.2274   -1.9804    0.0000 C   0  0  0  0  0  0  0  0  0
    2.9419   -2.3929    0.0000 C   0  0  0  0  0  0  0  0  0
    2.9419   -3.2179    0.0000 N   0  0  0  0  0  0  0  0  0
    2.2274   -3.6304    0.0000 C   0  0  0  0  0  0  0  0  0
    1.5129   -3.2179    0.0000 C   0  0  0  0  0  0  0  0  0
    0.0840   -3.2179    0.0000 C   0  0  0  0  0  0  0  0  0
   -0.7285   -3.0747    0.0000 O   0  0  0  0  0  0  0  0  0
    0.8965   -3.0747    0.0000 C   0  0  0  0  0  0  0  0  0
    1.4268   -3.7066    0.0000 C   0  0  0  0  0  0  0  0  0
    1.1446   -4.4819    0.0000 C   0  0  0  0  0  0  0  0  0
    0.3321   -4.6252    0.0000 C   0  0  0  0  0  0  0  0  0
   -0.1982   -3.9932    0.0000 C   0  0  0  0  0  0  0  0  0
  1  2  1  0  0  0  0
  2  3  4  0  0  0  0
  2  7  4  0  0  0  0
  3  4  4  0  0  0  0
  4  5  4  0  0  0  0
  4  8  1  0  0  0  0
  5  6  4  0  0  0  0
  6  7  4  0  0  0  0
  8  9  1  0  0  0  0
  8 16  1  0  0  0  0
  9 10  1  0  0  0  0
 10 11  1  0  0  0  0
 10 15  1  0  0  0  0
 11 12  1  0  0  0  0
 12 13  1  0  0  0  0
 13 14  1  0  0  0  0
 14 15  1  0  0  0  0
 16 17  1  0  0  0  0
 16 18  1  0  0  0  0
 16 22  1  0  0  0  0
 18 19  1  0  0  0  0
 19 20  1  0  0  0  0
 20 21  1  0  0  0  0
 21 22  1  0  0  0  0
M  END
>  <Name_Molregno>
447773

>  <Norepinephrine transporter>
6.43

$$$$
447775
  Marvin  02231216192D 0   1.00000     0.00000     0

 26 28  0  0  1  0  0  0  0  0999 V2000
    0.8938    1.6893    0.0000 F   0  0  0  0  0  0  0  0  0
    1.6083    1.2768    0.0000 C   0  0  0  0  0  0  0  0  0
    1.1958    0.5623    0.0000 F   0  0  0  0  0  0  0  0  0
    2.0208    1.9913    0.0000 F   0  0  0  0  0  0  0  0  0
    2.3227    0.8643    0.0000 O   0  0  0  0  0  0  0  0  0
    2.3227    0.0393    0.0000 C   0  0  0  0  0  0  0  0  0
    3.0372   -0.3732    0.0000 C   0  0  0  0  0  0  0  0  0
    3.0372   -1.1982    0.0000 C   0  0  0  0  0  0  0  0  0
    2.3227   -1.6107    0.0000 C   0  0  0  0  0  0  0  0  0
    1.6083   -1.1982    0.0000 C   0  0  0  0  0  0  0  0  0
    1.6083   -0.3732    0.0000 C   0  0  0  0  0  0  0  0  0
    3.7517   -1.6107    0.0000 C   0  0  0  0  0  0  0  0  0
    4.4662   -1.1982    0.0000 C   0  0  0  0  0  0  0  0  0
    5.1806   -1.6107    0.0000 N   0  0  0  0  0  0  0  0  0
    5.8951   -1.1982    0.0000 C   0  0  0  0  0  0  0  0  0
    6.6096   -1.6107    0.0000 C   0  0  0  0  0  0  0  0  0
    6.6096   -2.4357    0.0000 N   0  0  0  0  0  0  0  0  0
    5.8951   -2.8482    0.0000 C   0  0  0  0  0  0  0  0  0
    5.1806   -2.4357    0.0000 C   0  0  0  0  0  0  0  0  0
    3.7517   -2.4357    0.0000 C   0  0  0  0  0  0  0  0  0
    2.9392   -2.2924    0.0000 O   0  0  0  0  0  0  0  0  0
    4.5641   -2.2924    0.0000 C   0  0  0  0  0  0  0  0  0
    5.0944   -2.9244    0.0000 C   0  0  0  0  0  0  0  0  0
    4.8123   -3.6997    0.0000 C   0  0  0  0  0  0  0  0  0
    3.9998   -3.8429    0.0000 C   0  0  0  0  0  0  0  0  0
    3.4695   -3.2109    0.0000 C   0  0  0  0  0  0  0  0  0
  1  2  1  0  0  0  0
  2  3  1  0  0  0  0
  2  4  1  0  0  0  0
  2  5  1  0  0  0  0
  5  6  1  0  0  0  0
  6  7  4  0  0  0  0
  6 11  4  0  0  0  0
  7  8  4  0  0  0  0
  8  9  4  0  0  0  0
  8 12  1  0  0  0  0
  9 10  4  0  0  0  0
 10 11  4  0  0  0  0
 12 13  1  0  0  0  0
 12 20  1  0  0  0  0
 13 14  1  0  0  0  0
 14 15  1  0  0  0  0
 14 19  1  0  0  0  0
 15 16  1  0  0  0  0
 16 17  1  0  0  0  0
 17 18  1  0  0  0  0
 18 19  1  0  0  0  0
 20 21  1  0  0  0  0
 20 22  1  0  0  0  0
 20 26  1  0  0  0  0
 22 23  1  0  0  0  0
 23 24  1  0  0  0  0
 24 25  1  0  0  0  0
 25 26  1  0  0  0  0
M  END
>  <Name_Molregno>
447775

>  <Norepinephrine transporter>
6.68

$$$$
447778
  Marvin  02231216192D 0   1.00000     0.00000     0

 26 28  0  0  1  0  0  0  0  0999 V2000
   -3.4729    4.7128    0.0000 F   0  0  0  0  0  0  0  0  0
   -3.4729    3.8878    0.0000 C   0  0  0  0  0  0  0  0  0
   -4.2979    3.8878    0.0000 F   0  0  0  0  0  0  0  0  0
   -2.6479    3.8878    0.0000 F   0  0  0  0  0  0  0  0  0
   -3.4729    3.0628    0.0000 C   0  0  0  0  0  0  0  0  0
   -2.7584    2.6503    0.0000 C   0  0  0  0  0  0  0  0  0
   -2.7584    1.8253    0.0000 C   0  0  0  0  0  0  0  0  0
   -3.4729    1.4128    0.0000 C   0  0  0  0  0  0  0  0  0
   -4.1874    1.8253    0.0000 C   0  0  0  0  0  0  0  0  0
   -4.1874    2.6503    0.0000 C   0  0  0  0  0  0  0  0  0
   -2.0439    1.4128    0.0000 C   0  0  0  0  0  0  0  0  0
   -1.3295    1.8253    0.0000 C   0  0  0  0  0  0  0  0  0
   -0.6150    1.4128    0.0000 N   0  0  0  0  0  0  0  0  0
    0.0995    1.8253    0.0000 C   0  0  0  0  0  0  0  0  0
    0.8139    1.4128    0.0000 C   0  0  0  0  0  0  0  0  0
    0.8139    0.5878    0.0000 N   0  0  0  0  0  0  0  0  0
    0.0995    0.1753    0.0000 C   0  0  0  0  0  0  0  0  0
   -0.6150    0.5878    0.0000 C   0  0  0  0  0  0  0  0  0
    1.5284    0.1753    0.0000 C   0  0  0  0  0  0  0  0  0
   -2.0439    0.5878    0.0000 C   0  0  0  0  0  0  0  0  0
   -2.8564    0.7310    0.0000 O   0  0  0  0  0  0  0  0  0
   -1.2315    0.7310    0.0000 C   0  0  0  0  0  0  0  0  0
   -0.7012    0.0991    0.0000 C   0  0  0  0  0  0  0  0  0
   -0.9833   -0.6762    0.0000 C   0  0  0  0  0  0  0  0  0
   -1.7958   -0.8195    0.0000 C   0  0  0  0  0  0  0  0  0
   -2.3261   -0.1875    0.0000 C   0  0  0  0  0  0  0  0  0
  1  2  1  0  0  0  0
  2  3  1  0  0  0  0
  2  4  1  0  0  0  0
  2  5  1  0  0  0  0
  5  6  4  0  0  0  0
  5 10  4  0  0  0  0
  6  7  4  0  0  0  0
  7  8  4  0  0  0  0
  7 11  1  0  0  0  0
  8  9  4  0  0  0  0
  9 10  4  0  0  0  0
 11 12  1  0  0  0  0
 11 20  1  0  0  0  0
 12 13  1  0  0  0  0
 13 14  1  0  0  0  0
 13 18  1  0  0  0  0
 14 15  1  0  0  0  0
 15 16  1  0  0  0  0
 16 17  1  0  0  0  0
 16 19  1  0  0  0  0
 17 18  1  0  0  0  0
 20 21  1  0  0  0  0
 20 22  1  0  0  0  0
 20 26  1  0  0  0  0
 22 23  1  0  0  0  0
 23 24  1  0  0  0  0
 24 25  1  0  0  0  0
 25 26  1  0  0  0  0
M  END
>  <Name_Molregno>
447778

>  <Norepinephrine transporter>
7.21

$$$$
447779
  Marvin  02231216192D 0   1.00000     0.00000     0

 25 27  0  0  1  0  0  0  0  0999 V2000
   -3.3998    4.4381    0.0000 F   0  0  0  0  0  0  0  0  0
   -3.3998    3.6131    0.0000 C   0  0  0  0  0  0  0  0  0
   -4.2248    3.6131    0.0000 F   0  0  0  0  0  0  0  0  0
   -2.5748    3.6131    0.0000 F   0  0  0  0  0  0  0  0  0
   -3.3998    2.7881    0.0000 C   0  0  0  0  0  0  0  0  0
   -2.6854    2.3756    0.0000 C   0  0  0  0  0  0  0  0  0
   -2.6854    1.5506    0.0000 C   0  0  0  0  0  0  0  0  0
   -3.3998    1.1381    0.0000 C   0  0  0  0  0  0  0  0  0
   -4.1143    1.5506    0.0000 C   0  0  0  0  0  0  0  0  0
   -4.1143    2.3756    0.0000 C   0  0  0  0  0  0  0  0  0
   -1.9709    1.1381    0.0000 C   0  0  0  0  0  0  0  0  0
   -1.2564    1.5506    0.0000 C   0  0  0  0  0  0  0  0  0
   -0.5420    1.1381    0.0000 N   0  0  0  0  0  0  0  0  0
    0.1725    1.5506    0.0000 C   0  0  0  0  0  0  0  0  0
    0.8870    1.1381    0.0000 C   0  0  0  0  0  0  0  0  0
    0.8870    0.3131    0.0000 N   0  0  0  0  0  0  0  0  0
    0.1725   -0.0994    0.0000 C   0  0  0  0  0  0  0  0  0
   -0.5420    0.3131    0.0000 C   0  0  0  0  0  0  0  0  0
   -1.9709    0.3131    0.0000 C   0  0  0  0  0  0  0  0  0
   -2.7834    0.4564    0.0000 O   0  0  0  0  0  0  0  0  0
   -1.1584    0.4564    0.0000 C   0  0  0  0  0  0  0  0  0
   -0.6281   -0.1756    0.0000 C   0  0  0  0  0  0  0  0  0
   -0.9103   -0.9508    0.0000 C   0  0  0  0  0  0  0  0  0
   -1.7228   -1.0941    0.0000 C   0  0  0  0  0  0  0  0  0
   -2.2531   -0.4621    0.0000 C   0  0  0  0  0  0  0  0  0
  1  2  1  0  0  0  0
  2  3  1  0  0  0  0
  2  4  1  0  0  0  0
  2  5  1  0  0  0  0
  5  6  4  0  0  0  0
  5 10  4  0  0  0  0
  6  7  4  0  0  0  0
  7  8  4  0  0  0  0
  7 11  1  0  0  0  0
  8  9  4  0  0  0  0
  9 10  4  0  0  0  0
 11 12  1  0  0  0  0
 11 19  1  0  0  0  0
 12 13  1  0  0  0  0
 13 14  1  0  0  0  0
 13 18  1  0  0  0  0
 14 15  1  0  0  0  0
 15 16  1  0  0  0  0
 16 17  1  0  0  0  0
 17 18  1  0  0  0  0
 19 20  1  0  0  0  0
 19 21  1  0  0  0  0
 19 25  1  0  0  0  0
 21 22  1  0  0  0  0
 22 23  1  0  0  0  0
 23 24  1  0  0  0  0
 24 25  1  0  0  0  0
M  END
>  <Name_Molregno>
447779

>  <Norepinephrine transporter>
7.24

$$$$
448443
  Marvin  02231216192D 0   1.00000     0.00000     0

 23 25  0  0  1  0  0  0  0  0999 V2000
   -0.9746    1.2670    0.0000 Cl  0  0  0  0  0  0  0  0  0
   -0.9746    0.4420    0.0000 C   0  0  0  0  0  0  0  0  0
   -0.2601    0.0295    0.0000 C   0  0  0  0  0  0  0  0  0
   -0.2601   -0.7955    0.0000 C   0  0  0  0  0  0  0  0  0
   -0.9746   -1.2080    0.0000 C   0  0  0  0  0  0  0  0  0
   -1.6891   -0.7955    0.0000 C   0  0  0  0  0  0  0  0  0
   -1.6891    0.0295    0.0000 C   0  0  0  0  0  0  0  0  0
   -0.9746   -2.0330    0.0000 C   0  0  0  0  0  0  0  0  0
   -0.2601   -2.4455    0.0000 C   0  0  0  0  0  0  0  0  0
   -0.2601   -3.2705    0.0000 N   0  0  0  0  0  0  0  0  0
    0.4543   -3.6830    0.0000 C   0  0  0  0  0  0  0  0  0
    0.4543   -4.5080    0.0000 C   0  0  0  0  0  0  0  0  0
   -0.2601   -4.9205    0.0000 N   0  0  0  0  0  0  0  0  0
   -0.9746   -4.5080    0.0000 C   0  0  0  0  0  0  0  0  0
   -0.9746   -3.6830    0.0000 C   0  0  0  0  0  0  0  0  0
   -0.2601   -5.7455    0.0000 C   0  0  0  0  0  0  0  0  0
   -1.6891   -2.4455    0.0000 C   0  0  0  0  0  0  0  0  0
   -1.9712   -1.6702    0.0000 O   0  0  0  0  0  0  0  0  0
   -1.1588   -3.0774    0.0000 C   0  0  0  0  0  0  0  0  0
   -1.4409   -3.8527    0.0000 C   0  0  0  0  0  0  0  0  0
   -2.2534   -3.9959    0.0000 C   0  0  0  0  0  0  0  0  0
   -2.7837   -3.3640    0.0000 C   0  0  0  0  0  0  0  0  0
   -2.5015   -2.5887    0.0000 C   0  0  0  0  0  0  0  0  0
  1  2  1  0  0  0  0
  2  3  4  0  0  0  0
  2  7  4  0  0  0  0
  3  4  4  0  0  0  0
  4  5  4  0  0  0  0
  5  6  4  0  0  0  0
  5  8  1  0  0  0  0
  6  7  4  0  0  0  0
  8  9  1  0  0  0  0
  8 17  1  0  0  0  0
  9 10  1  0  0  0  0
 10 11  1  0  0  0  0
 10 15  1  0  0  0  0
 11 12  1  0  0  0  0
 12 13  1  0  0  0  0
 13 14  1  0  0  0  0
 13 16  1  0  0  0  0
 14 15  1  0  0  0  0
 17 18  1  0  0  0  0
 17 19  1  0  0  0  0
 17 23  1  0  0  0  0
 19 20  1  0  0  0  0
 20 21  1  0  0  0  0
 21 22  1  0  0  0  0
 22 23  1  0  0  0  0
M  END
>  <Name_Molregno>
448443

>  <Norepinephrine transporter>
5.91

$$$$
448444
  Marvin  02231216192D 0   1.00000     0.00000     0

 22 24  0  0  1  0  0  0  0  0999 V2000
   -1.0849    1.1671    0.0000 Cl  0  0  0  0  0  0  0  0  0
   -1.0849    0.3421    0.0000 C   0  0  0  0  0  0  0  0  0
   -0.3705   -0.0704    0.0000 C   0  0  0  0  0  0  0  0  0
   -0.3705   -0.8954    0.0000 C   0  0  0  0  0  0  0  0  0
   -1.0849   -1.3079    0.0000 C   0  0  0  0  0  0  0  0  0
   -1.7994   -0.8954    0.0000 C   0  0  0  0  0  0  0  0  0
   -1.7994   -0.0704    0.0000 C   0  0  0  0  0  0  0  0  0
   -1.0849   -2.1329    0.0000 C   0  0  0  0  0  0  0  0  0
   -0.3705   -2.5454    0.0000 C   0  0  0  0  0  0  0  0  0
   -0.3705   -3.3704    0.0000 N   0  0  0  0  0  0  0  0  0
    0.3440   -3.7829    0.0000 C   0  0  0  0  0  0  0  0  0
    0.3440   -4.6079    0.0000 C   0  0  0  0  0  0  0  0  0
   -0.3705   -5.0204    0.0000 N   0  0  0  0  0  0  0  0  0
   -1.0849   -4.6079    0.0000 C   0  0  0  0  0  0  0  0  0
   -1.0849   -3.7829    0.0000 C   0  0  0  0  0  0  0  0  0
   -1.7994   -2.5454    0.0000 C   0  0  0  0  0  0  0  0  0
   -2.0816   -1.7702    0.0000 O   0  0  0  0  0  0  0  0  0
   -1.2691   -3.1774    0.0000 C   0  0  0  0  0  0  0  0  0
   -1.5513   -3.9527    0.0000 C   0  0  0  0  0  0  0  0  0
   -2.3637   -4.0959    0.0000 C   0  0  0  0  0  0  0  0  0
   -2.8940   -3.4639    0.0000 C   0  0  0  0  0  0  0  0  0
   -2.6119   -2.6887    0.0000 C   0  0  0  0  0  0  0  0  0
  1  2  1  0  0  0  0
  2  3  4  0  0  0  0
  2  7  4  0  0  0  0
  3  4  4  0  0  0  0
  4  5  4  0  0  0  0
  5  6  4  0  0  0  0
  5  8  1  0  0  0  0
  6  7  4  0  0  0  0
  8  9  1  0  0  0  0
  8 16  1  0  0  0  0
  9 10  1  0  0  0  0
 10 11  1  0  0  0  0
 10 15  1  0  0  0  0
 11 12  1  0  0  0  0
 12 13  1  0  0  0  0
 13 14  1  0  0  0  0
 14 15  1  0  0  0  0
 16 17  1  0  0  0  0
 16 18  1  0  0  0  0
 16 22  1  0  0  0  0
 18 19  1  0  0  0  0
 19 20  1  0  0  0  0
 20 21  1  0  0  0  0
 21 22  1  0  0  0  0
M  END
>  <Name_Molregno>
448444

>  <Norepinephrine transporter>
6.14

$$$$
448445
  Marvin  02231216192D 0   1.00000     0.00000     0

 23 25  0  0  1  0  0  0  0  0999 V2000
   -1.3503    0.0878    0.0000 Cl  0  0  0  0  0  0  0  0  0
   -1.3503   -0.7372    0.0000 C   0  0  0  0  0  0  0  0  0
   -0.6358   -1.1497    0.0000 C   0  0  0  0  0  0  0  0  0
   -0.6358   -1.9747    0.0000 C   0  0  0  0  0  0  0  0  0
   -1.3503   -2.3872    0.0000 C   0  0  0  0  0  0  0  0  0
   -2.0647   -1.9747    0.0000 C   0  0  0  0  0  0  0  0  0
   -2.0647   -1.1497    0.0000 C   0  0  0  0  0  0  0  0  0
    0.0787   -2.3872    0.0000 C   0  0  0  0  0  0  0  0  0
    0.7932   -1.9747    0.0000 C   0  0  0  0  0  0  0  0  0
    1.5076   -2.3872    0.0000 N   0  0  0  0  0  0  0  0  0
    2.2221   -1.9747    0.0000 C   0  0  0  0  0  0  0  0  0
    2.9366   -2.3872    0.0000 C   0  0  0  0  0  0  0  0  0
    2.9366   -3.2122    0.0000 N   0  0  0  0  0  0  0  0  0
    2.2221   -3.6247    0.0000 C   0  0  0  0  0  0  0  0  0
    1.5076   -3.2122    0.0000 C   0  0  0  0  0  0  0  0  0
    3.6510   -3.6247    0.0000 C   0  0  0  0  0  0  0  0  0
    0.0787   -3.2122    0.0000 C   0  0  0  0  0  0  0  0  0
   -0.7338   -3.0689    0.0000 O   0  0  0  0  0  0  0  0  0
    0.8912   -3.0689    0.0000 C   0  0  0  0  0  0  0  0  0
    1.4215   -3.7009    0.0000 C   0  0  0  0  0  0  0  0  0
    1.1393   -4.4762    0.0000 C   0  0  0  0  0  0  0  0  0
    0.3268   -4.6194    0.0000 C   0  0  0  0  0  0  0  0  0
   -0.2035   -3.9874    0.0000 C   0  0  0  0  0  0  0  0  0
  1  2  1  0  0  0  0
  2  3  4  0  0  0  0
  2  7  4  0  0  0  0
  3  4  4  0  0  0  0
  4  5  4  0  0  0  0
  4  8  1  0  0  0  0
  5  6  4  0  0  0  0
  6  7  4  0  0  0  0
  8  9  1  0  0  0  0
  8 17  1  0  0  0  0
  9 10  1  0  0  0  0
 10 11  1  0  0  0  0
 10 15  1  0  0  0  0
 11 12  1  0  0  0  0
 12 13  1  0  0  0  0
 13 14  1  0  0  0  0
 13 16  1  0  0  0  0
 14 15  1  0  0  0  0
 17 18  1  0  0  0  0
 17 19  1  0  0  0  0
 17 23  1  0  0  0  0
 19 20  1  0  0  0  0
 20 21  1  0  0  0  0
 21 22  1  0  0  0  0
 22 23  1  0  0  0  0
M  END
>  <Name_Molregno>
448445

>  <Dopamine transporter>
7.02

>  <Norepinephrine transporter>
7.31

$$$$
448524
  Marvin  02231216192D 0   1.00000     0.00000     0

 22 24  0  0  1  0  0  0  0  0999 V2000
   -1.3449    0.0821    0.0000 Cl  0  0  0  0  0  0  0  0  0
   -1.3449   -0.7429    0.0000 C   0  0  0  0  0  0  0  0  0
   -0.6305   -1.1554    0.0000 C   0  0  0  0  0  0  0  0  0
   -0.6305   -1.9804    0.0000 C   0  0  0  0  0  0  0  0  0
   -1.3449   -2.3929    0.0000 C   0  0  0  0  0  0  0  0  0
   -2.0594   -1.9804    0.0000 C   0  0  0  0  0  0  0  0  0
   -2.0594   -1.1554    0.0000 C   0  0  0  0  0  0  0  0  0
    0.0840   -2.3929    0.0000 C   0  0  0  0  0  0  0  0  0
    0.7985   -1.9804    0.0000 C   0  0  0  0  0  0  0  0  0
    1.5129   -2.3929    0.0000 N   0  0  0  0  0  0  0  0  0
    2.2274   -1.9804    0.0000 C   0  0  0  0  0  0  0  0  0
    2.9419   -2.3929    0.0000 C   0  0  0  0  0  0  0  0  0
    2.9419   -3.2179    0.0000 N   0  0  0  0  0  0  0  0  0
    2.2274   -3.6304    0.0000 C   0  0  0  0  0  0  0  0  0
    1.5129   -3.2179    0.0000 C   0  0  0  0  0  0  0  0  0
    0.0840   -3.2179    0.0000 C   0  0  0  0  0  0  0  0  0
   -0.7285   -3.0747    0.0000 O   0  0  0  0  0  0  0  0  0
    0.8965   -3.0747    0.0000 C   0  0  0  0  0  0  0  0  0
    1.4268   -3.7066    0.0000 C   0  0  0  0  0  0  0  0  0
    1.1446   -4.4819    0.0000 C   0  0  0  0  0  0  0  0  0
    0.3321   -4.6252    0.0000 C   0  0  0  0  0  0  0  0  0
   -0.1982   -3.9932    0.0000 C   0  0  0  0  0  0  0  0  0
  1  2  1  0  0  0  0
  2  3  4  0  0  0  0
  2  7  4  0  0  0  0
  3  4  4  0  0  0  0
  4  5  4  0  0  0  0
  4  8  1  0  0  0  0
  5  6  4  0  0  0  0
  6  7  4  0  0  0  0
  8  9  1  0  0  0  0
  8 16  1  0  0  0  0
  9 10  1  0  0  0  0
 10 11  1  0  0  0  0
 10 15  1  0  0  0  0
 11 12  1  0  0  0  0
 12 13  1  0  0  0  0
 13 14  1  0  0  0  0
 14 15  1  0  0  0  0
 16 17  1  0  0  0  0
 16 18  1  0  0  0  0
 16 22  1  0  0  0  0
 18 19  1  0  0  0  0
 19 20  1  0  0  0  0
 20 21  1  0  0  0  0
 21 22  1  0  0  0  0
M  END
>  <Name_Molregno>
448524

>  <Dopamine transporter>
6.9

>  <Norepinephrine transporter>
7.39

$$$$
448527
  Marvin  02231216192D 0   1.00000     0.00000     0

 27 29  0  0  1  0  0  0  0  0999 V2000
    2.7592    4.0202    0.0000 F   0  0  0  0  0  0  0  0  0
    3.4737    3.6077    0.0000 C   0  0  0  0  0  0  0  0  0
    3.0612    2.8933    0.0000 F   0  0  0  0  0  0  0  0  0
    3.8862    4.3222    0.0000 F   0  0  0  0  0  0  0  0  0
    4.1882    3.1952    0.0000 O   0  0  0  0  0  0  0  0  0
    4.1882    2.3702    0.0000 C   0  0  0  0  0  0  0  0  0
    4.9027    1.9577    0.0000 C   0  0  0  0  0  0  0  0  0
    4.9027    1.1327    0.0000 C   0  0  0  0  0  0  0  0  0
    4.1882    0.7202    0.0000 C   0  0  0  0  0  0  0  0  0
    3.4737    1.1327    0.0000 C   0  0  0  0  0  0  0  0  0
    3.4737    1.9577    0.0000 C   0  0  0  0  0  0  0  0  0
    4.1882   -0.1048    0.0000 C   0  0  0  0  0  0  0  0  0
    4.9027   -0.5173    0.0000 C   0  0  0  0  0  0  0  0  0
    4.9027   -1.3423    0.0000 N   0  0  0  0  0  0  0  0  0
    5.6171   -1.7548    0.0000 C   0  0  0  0  0  0  0  0  0
    5.6171   -2.5798    0.0000 C   0  0  0  0  0  0  0  0  0
    4.9027   -2.9923    0.0000 N   0  0  0  0  0  0  0  0  0
    4.1882   -2.5798    0.0000 C   0  0  0  0  0  0  0  0  0
    4.1882   -1.7548    0.0000 C   0  0  0  0  0  0  0  0  0
    4.9027   -3.8173    0.0000 C   0  0  0  0  0  0  0  0  0
    3.4737   -0.5173    0.0000 C   0  0  0  0  0  0  0  0  0
    3.1916    0.2580    0.0000 O   0  0  0  0  0  0  0  0  0
    4.0040   -1.1493    0.0000 C   0  0  0  0  0  0  0  0  0
    3.7219   -1.9245    0.0000 C   0  0  0  0  0  0  0  0  0
    2.9094   -2.0678    0.0000 C   0  0  0  0  0  0  0  0  0
    2.3791   -1.4358    0.0000 C   0  0  0  0  0  0  0  0  0
    2.6613   -0.6605    0.0000 C   0  0  0  0  0  0  0  0  0
  1  2  1  0  0  0  0
  2  3  1  0  0  0  0
  2  4  1  0  0  0  0
  2  5  1  0  0  0  0
  5  6  1  0  0  0  0
  6  7  4  0  0  0  0
  6 11  4  0  0  0  0
  7  8  4  0  0  0  0
  8  9  4  0  0  0  0
  9 10  4  0  0  0  0
  9 12  1  0  0  0  0
 10 11  4  0  0  0  0
 12 13  1  0  0  0  0
 12 21  1  0  0  0  0
 13 14  1  0  0  0  0
 14 15  1  0  0  0  0
 14 19  1  0  0  0  0
 15 16  1  0  0  0  0
 16 17  1  0  0  0  0
 17 18  1  0  0  0  0
 17 20  1  0  0  0  0
 18 19  1  0  0  0  0
 21 22  1  0  0  0  0
 21 23  1  0  0  0  0
 21 27  1  0  0  0  0
 23 24  1  0  0  0  0
 24 25  1  0  0  0  0
 25 26  1  0  0  0  0
 26 27  1  0  0  0  0
M  END
>  <Name_Molregno>
448527

>  <Norepinephrine transporter>
6.38

$$$$
449149
  Marvin  02231216192D 0   1.00000     0.00000     0

 14 16  0  0  1  0  0  0  0  0999 V2000
   -0.3662   -2.2139    0.0000 Cl  0  0  0  0  0  0  0  0  0
    0.4543   -2.1276    0.0000 C   0  0  0  0  0  0  0  0  0
    0.7899   -1.3740    0.0000 C   0  0  0  0  0  0  0  0  0
    1.6104   -1.2877    0.0000 C   0  0  0  0  0  0  0  0  0
    2.0953   -1.9552    0.0000 C   0  0  0  0  0  0  0  0  0
    1.7597   -2.7088    0.0000 C   0  0  0  0  0  0  0  0  0
    0.9393   -2.7951    0.0000 C   0  0  0  0  0  0  0  0  0
    0.6037   -3.5488    0.0000 Cl  0  0  0  0  0  0  0  0  0
    1.9459   -0.5341    0.0000 C   0  0  0  0  0  0  0  0  0
    1.9459    0.2909    0.0000 C   0  0  0  0  0  0  0  0  0
    1.2315   -0.1216    0.0000 C   0  0  0  0  0  0  0  0  0
    2.7305    0.5459    0.0000 C   0  0  0  0  0  0  0  0  0
    3.2155   -0.1216    0.0000 N   0  0  0  0  0  0  0  0  0
    2.7305   -0.7890    0.0000 C   0  0  0  0  0  0  0  0  0
  1  2  1  0  0  0  0
  2  3  4  0  0  0  0
  2  7  4  0  0  0  0
  3  4  4  0  0  0  0
  4  5  4  0  0  0  0
  4  9  1  0  0  0  0
  5  6  4  0  0  0  0
  6  7  4  0  0  0  0
  7  8  1  0  0  0  0
  9 10  1  0  0  0  0
  9 11  1  0  0  0  0
  9 14  1  0  0  0  0
 10 11  1  0  0  0  0
 10 12  1  0  0  0  0
 12 13  1  0  0  0  0
 13 14  1  0  0  0  0
M  END
>  <Name_Molregno>
449149

>  <Dopamine transporter>
7.03

>  <Norepinephrine transporter>
6.84

>  <Serotonin transporter>
7.08

$$$$
454328
  Marvin  02231216192D 0   1.00000     0.00000     0

 23 25  0  0  1  0  0  0  0  0999 V2000
    4.1005   -4.2064    0.0000 I   0  0  0  0  0  0  0  0  0
    4.5137   -3.4923    0.0000 C   0  0  0  0  0  0  0  0  0
    4.1019   -2.7775    0.0000 C   0  0  0  0  0  0  0  0  0
    4.5151   -2.0634    0.0000 C   0  0  0  0  0  0  0  0  0
    4.1033   -1.3485    0.0000 C   0  0  0  0  0  0  0  0  0
    4.5165   -0.6344    0.0000 C   0  0  0  0  0  0  0  0  0
    5.3415   -0.6353    0.0000 C   0  0  0  0  0  0  0  0  0
    5.7533   -1.3501    0.0000 C   0  0  0  0  0  0  0  0  0
    5.3401   -2.0642    0.0000 C   0  0  0  0  0  0  0  0  0
    4.1047    0.0804    0.0000 C   0  0  0  0  0  0  0  0  0
    3.9665    0.8978    0.0000 C   0  0  0  0  0  0  0  0  0
    3.0377    0.8823    0.0000 C   0  0  0  0  0  0  0  0  0
    2.4771    1.3222    0.0000 N   0  0  0  0  0  0  0  0  0
    2.6168    0.5091    0.0000 C   0  0  0  0  0  0  0  0  0
    2.0969   -0.2032    0.0000 C   0  0  0  0  0  0  0  0  0
    2.7172    0.1737    0.0000 C   0  0  0  0  0  0  0  0  0
    3.5885    0.5091    0.0000 C   0  0  0  0  0  0  0  0  0
    3.7404    1.5168    0.0000 C   0  0  0  0  0  0  0  0  0
    4.5243    1.8649    0.0000 O   0  0  0  0  0  0  0  0  0
    5.1546    2.4055    0.0000 C   0  0  0  0  0  0  0  0  0
    5.9675    2.4848    0.0000 C   0  0  0  0  0  0  0  0  0
    6.3087    3.2359    0.0000 F   0  0  0  0  0  0  0  0  0
    3.5473    2.3821    0.0000 O   0  0  0  0  0  0  0  0  0
  1  2  1  0  0  0  0
  2  3  2  0  0  0  0
  3  4  1  0  0  0  0
  4  5  4  0  0  0  0
  4  9  4  0  0  0  0
  5  6  4  0  0  0  0
  6  7  4  0  0  0  0
  6 10  1  0  0  0  0
  7  8  4  0  0  0  0
  8  9  4  0  0  0  0
 10 11  1  0  0  0  0
 10 17  1  0  0  0  0
 11 12  1  0  0  0  0
 12 13  1  0  0  0  0
 12 16  1  0  0  0  0
 13 14  1  0  0  0  0
 14 15  1  0  0  0  0
 14 17  1  0  0  0  0
 15 16  1  0  0  0  0
 17 18  1  0  0  0  0
 18 19  1  0  0  0  0
 18 23  2  0  0  0  0
 19 20  1  0  0  0  0
 20 21  1  0  0  0  0
 21 22  1  0  0  0  0
M  END
>  <Name_Molregno>
454328

>  <Dopamine transporter>
6.81

>  <Norepinephrine transporter>
6.44

>  <Serotonin transporter>
8.6

$$$$
454329
  Marvin  02231216192D 0   1.00000     0.00000     0

 23 25  0  0  1  0  0  0  0  0999 V2000
    4.1005   -4.2064    0.0000 Br  0  0  0  0  0  0  0  0  0
    4.5137   -3.4923    0.0000 C   0  0  0  0  0  0  0  0  0
    4.1019   -2.7775    0.0000 C   0  0  0  0  0  0  0  0  0
    4.5151   -2.0634    0.0000 C   0  0  0  0  0  0  0  0  0
    4.1033   -1.3485    0.0000 C   0  0  0  0  0  0  0  0  0
    4.5165   -0.6344    0.0000 C   0  0  0  0  0  0  0  0  0
    5.3415   -0.6353    0.0000 C   0  0  0  0  0  0  0  0  0
    5.7533   -1.3501    0.0000 C   0  0  0  0  0  0  0  0  0
    5.3401   -2.0642    0.0000 C   0  0  0  0  0  0  0  0  0
    4.1047    0.0804    0.0000 C   0  0  0  0  0  0  0  0  0
    3.9665    0.8978    0.0000 C   0  0  0  0  0  0  0  0  0
    3.0377    0.8823    0.0000 C   0  0  0  0  0  0  0  0  0
    2.4771    1.3222    0.0000 N   0  0  0  0  0  0  0  0  0
    2.6168    0.5091    0.0000 C   0  0  0  0  0  0  0  0  0
    2.0969   -0.2032    0.0000 C   0  0  0  0  0  0  0  0  0
    2.7172    0.1737    0.0000 C   0  0  0  0  0  0  0  0  0
    3.5885    0.5091    0.0000 C   0  0  0  0  0  0  0  0  0
    3.7404    1.5168    0.0000 C   0  0  0  0  0  0  0  0  0
    4.5243    1.8649    0.0000 O   0  0  0  0  0  0  0  0  0
    5.1546    2.4055    0.0000 C   0  0  0  0  0  0  0  0  0
    5.9675    2.4848    0.0000 C   0  0  0  0  0  0  0  0  0
    6.3087    3.2359    0.0000 F   0  0  0  0  0  0  0  0  0
    3.5473    2.3821    0.0000 O   0  0  0  0  0  0  0  0  0
  1  2  1  0  0  0  0
  2  3  2  0  0  0  0
  3  4  1  0  0  0  0
  4  5  4  0  0  0  0
  4  9  4  0  0  0  0
  5  6  4  0  0  0  0
  6  7  4  0  0  0  0
  6 10  1  0  0  0  0
  7  8  4  0  0  0  0
  8  9  4  0  0  0  0
 10 11  1  0  0  0  0
 10 17  1  0  0  0  0
 11 12  1  0  0  0  0
 12 13  1  0  0  0  0
 12 16  1  0  0  0  0
 13 14  1  0  0  0  0
 14 15  1  0  0  0  0
 14 17  1  0  0  0  0
 15 16  1  0  0  0  0
 17 18  1  0  0  0  0
 18 19  1  0  0  0  0
 18 23  2  0  0  0  0
 19 20  1  0  0  0  0
 20 21  1  0  0  0  0
 21 22  1  0  0  0  0
M  END
>  <Name_Molregno>
454329

>  <Dopamine transporter>
7.45

>  <Norepinephrine transporter>
6.99

>  <Serotonin transporter>
9.48

$$$$
454400
  Marvin  02231216192D 0   1.00000     0.00000     0

 24 26  0  0  1  0  0  0  0  0999 V2000
    4.6618   -4.4731    0.0000 I   0  0  0  0  0  0  0  0  0
    5.0750   -3.7590    0.0000 C   0  0  0  0  0  0  0  0  0
    4.6632   -3.0442    0.0000 C   0  0  0  0  0  0  0  0  0
    5.0764   -2.3301    0.0000 C   0  0  0  0  0  0  0  0  0
    4.6646   -1.6152    0.0000 C   0  0  0  0  0  0  0  0  0
    5.0778   -0.9012    0.0000 C   0  0  0  0  0  0  0  0  0
    5.9028   -0.9020    0.0000 C   0  0  0  0  0  0  0  0  0
    6.3146   -1.6169    0.0000 C   0  0  0  0  0  0  0  0  0
    5.9014   -2.3309    0.0000 C   0  0  0  0  0  0  0  0  0
    4.6660   -0.1863    0.0000 C   0  0  0  0  0  0  0  0  0
    4.5278    0.6311    0.0000 C   0  0  0  0  0  0  0  0  0
    3.5990    0.6156    0.0000 C   0  0  0  0  0  0  0  0  0
    3.0384    1.0555    0.0000 N   0  0  0  0  0  0  0  0  0
    3.1781    0.2424    0.0000 C   0  0  0  0  0  0  0  0  0
    2.6582   -0.4699    0.0000 C   0  0  0  0  0  0  0  0  0
    3.2785   -0.0930    0.0000 C   0  0  0  0  0  0  0  0  0
    4.1498    0.2424    0.0000 C   0  0  0  0  0  0  0  0  0
    4.3554    1.2141    0.0000 C   0  0  0  0  0  0  0  0  0
    4.1890    2.0691    0.0000 O   0  0  0  0  0  0  0  0  0
    4.2593    2.9325    0.0000 C   0  0  0  0  0  0  0  0  0
    3.5692    3.4039    0.0000 C   0  0  0  0  0  0  0  0  0
    3.8878    4.1731    0.0000 C   0  0  0  0  0  0  0  0  0
    3.3856    4.8276    0.0000 F   0  0  0  0  0  0  0  0  0
    5.1476    1.6221    0.0000 O   0  0  0  0  0  0  0  0  0
  1  2  1  0  0  0  0
  2  3  2  0  0  0  0
  3  4  1  0  0  0  0
  4  5  4  0  0  0  0
  4  9  4  0  0  0  0
  5  6  4  0  0  0  0
  6  7  4  0  0  0  0
  6 10  1  0  0  0  0
  7  8  4  0  0  0  0
  8  9  4  0  0  0  0
 10 11  1  0  0  0  0
 10 17  1  0  0  0  0
 11 12  1  0  0  0  0
 12 13  1  0  0  0  0
 12 16  1  0  0  0  0
 13 14  1  0  0  0  0
 14 15  1  0  0  0  0
 14 17  1  0  0  0  0
 15 16  1  0  0  0  0
 17 18  1  0  0  0  0
 18 19  1  0  0  0  0
 18 24  2  0  0  0  0
 19 20  1  0  0  0  0
 20 21  1  0  0  0  0
 21 22  1  0  0  0  0
 22 23  1  0  0  0  0
M  END
>  <Name_Molregno>
454400

>  <Dopamine transporter>
6.75

>  <Norepinephrine transporter>
7.17

>  <Serotonin transporter>
9.59

$$$$
454401
  Marvin  02231216192D 0   1.00000     0.00000     0

 24 26  0  0  1  0  0  0  0  0999 V2000
    4.6618   -4.4731    0.0000 Br  0  0  0  0  0  0  0  0  0
    5.0750   -3.7590    0.0000 C   0  0  0  0  0  0  0  0  0
    4.6632   -3.0442    0.0000 C   0  0  0  0  0  0  0  0  0
    5.0764   -2.3301    0.0000 C   0  0  0  0  0  0  0  0  0
    4.6646   -1.6152    0.0000 C   0  0  0  0  0  0  0  0  0
    5.0778   -0.9012    0.0000 C   0  0  0  0  0  0  0  0  0
    5.9028   -0.9020    0.0000 C   0  0  0  0  0  0  0  0  0
    6.3146   -1.6169    0.0000 C   0  0  0  0  0  0  0  0  0
    5.9014   -2.3309    0.0000 C   0  0  0  0  0  0  0  0  0
    4.6660   -0.1863    0.0000 C   0  0  0  0  0  0  0  0  0
    4.5278    0.6311    0.0000 C   0  0  0  0  0  0  0  0  0
    3.5990    0.6156    0.0000 C   0  0  0  0  0  0  0  0  0
    3.0384    1.0555    0.0000 N   0  0  0  0  0  0  0  0  0
    3.1781    0.2424    0.0000 C   0  0  0  0  0  0  0  0  0
    2.6582   -0.4699    0.0000 C   0  0  0  0  0  0  0  0  0
    3.2785   -0.0930    0.0000 C   0  0  0  0  0  0  0  0  0
    4.1498    0.2424    0.0000 C   0  0  0  0  0  0  0  0  0
    4.3554    1.2141    0.0000 C   0  0  0  0  0  0  0  0  0
    4.1890    2.0691    0.0000 O   0  0  0  0  0  0  0  0  0
    4.2593    2.9325    0.0000 C   0  0  0  0  0  0  0  0  0
    3.5692    3.4039    0.0000 C   0  0  0  0  0  0  0  0  0
    3.8878    4.1731    0.0000 C   0  0  0  0  0  0  0  0  0
    3.3856    4.8276    0.0000 F   0  0  0  0  0  0  0  0  0
    5.1476    1.6221    0.0000 O   0  0  0  0  0  0  0  0  0
  1  2  1  0  0  0  0
  2  3  2  0  0  0  0
  3  4  1  0  0  0  0
  4  5  4  0  0  0  0
  4  9  4  0  0  0  0
  5  6  4  0  0  0  0
  6  7  4  0  0  0  0
  6 10  1  0  0  0  0
  7  8  4  0  0  0  0
  8  9  4  0  0  0  0
 10 11  1  0  0  0  0
 10 17  1  0  0  0  0
 11 12  1  0  0  0  0
 12 13  1  0  0  0  0
 12 16  1  0  0  0  0
 13 14  1  0  0  0  0
 14 15  1  0  0  0  0
 14 17  1  0  0  0  0
 15 16  1  0  0  0  0
 17 18  1  0  0  0  0
 18 19  1  0  0  0  0
 18 24  2  0  0  0  0
 19 20  1  0  0  0  0
 20 21  1  0  0  0  0
 21 22  1  0  0  0  0
 22 23  1  0  0  0  0
M  END
>  <Name_Molregno>
454401

>  <Dopamine transporter>
6.93

>  <Norepinephrine transporter>
7.52

>  <Serotonin transporter>
9.48

$$$$
458468
  Marvin  02231216192D 0   1.00000     0.00000     0

 19 20  0  0  1  0  0  0  0  0999 V2000
    3.8677    1.8402    0.0000 F   0  0  0  0  0  0  0  0  0
    3.1532    1.4277    0.0000 C   0  0  0  0  0  0  0  0  0
    3.1532    0.6027    0.0000 C   0  0  0  0  0  0  0  0  0
    2.4387    0.1902    0.0000 C   0  0  0  0  0  0  0  0  0
    2.4387   -0.6348    0.0000 C   0  0  0  0  0  0  0  0  0
    3.1532   -1.0473    0.0000 C   0  0  0  0  0  0  0  0  0
    3.1532   -1.8723    0.0000 C   0  0  0  0  0  0  0  0  0
    3.8206   -2.3572    0.0000 O   0  0  0  0  0  0  0  0  0
    3.5657   -3.1418    0.0000 C   0  0  0  0  0  0  0  0  0
    2.7407   -3.1418    0.0000 C   0  0  0  0  0  0  0  0  0
    2.4857   -2.3572    0.0000 C   0  0  0  0  0  0  0  0  0
    4.0506   -3.8093    0.0000 C   0  0  0  0  0  0  0  0  0
    3.7150   -4.5630    0.0000 C   0  0  0  0  0  0  0  0  0
    4.2000   -5.2304    0.0000 N   0  0  0  0  0  0  0  0  0
    1.7242    0.6027    0.0000 C   0  0  0  0  0  0  0  0  0
    1.0098    0.1902    0.0000 O   0  0  0  0  0  0  0  0  0
    0.2953    0.6027    0.0000 C   0  0  0  0  0  0  0  0  0
    1.7242    1.4277    0.0000 C   0  0  0  0  0  0  0  0  0
    2.4387    1.8402    0.0000 C   0  0  0  0  0  0  0  0  0
  1  2  1  0  0  0  0
  2  3  4  0  0  0  0
  2 19  4  0  0  0  0
  3  4  4  0  0  0  0
  4  5  1  0  0  0  0
  4 15  4  0  0  0  0
  5  6  1  0  0  0  0
  6  7  1  0  0  0  0
  7  8  1  0  0  0  0
  7 11  1  0  0  0  0
  8  9  1  0  0  0  0
  9 10  1  0  0  0  0
  9 12  1  0  0  0  0
 10 11  1  0  0  0  0
 12 13  1  0  0  0  0
 13 14  1  0  0  0  0
 15 16  1  0  0  0  0
 15 18  4  0  0  0  0
 16 17  1  0  0  0  0
 18 19  4  0  0  0  0
M  END
>  <Name_Molregno>
458468

>  <Dopamine transporter>
5.09

>  <Norepinephrine transporter>
5.44

>  <Serotonin transporter>
8.44

$$$$
458469
  Marvin  02231216192D 0   1.00000     0.00000     0

 20 21  0  0  1  0  0  0  0  0999 V2000
   -2.1960    1.0389    0.0000 F   0  0  0  0  0  0  0  0  0
   -2.1960    0.2139    0.0000 C   0  0  0  0  0  0  0  0  0
   -1.4815   -0.1986    0.0000 C   0  0  0  0  0  0  0  0  0
   -1.4815   -1.0236    0.0000 C   0  0  0  0  0  0  0  0  0
   -0.7670   -1.4361    0.0000 C   0  0  0  0  0  0  0  0  0
   -0.7670   -2.2611    0.0000 C   0  0  0  0  0  0  0  0  0
   -0.0526   -2.6736    0.0000 C   0  0  0  0  0  0  0  0  0
   -0.0526   -3.4986    0.0000 C   0  0  0  0  0  0  0  0  0
    0.6149   -3.9835    0.0000 O   0  0  0  0  0  0  0  0  0
    0.3599   -4.7681    0.0000 C   0  0  0  0  0  0  0  0  0
   -0.4651   -4.7681    0.0000 C   0  0  0  0  0  0  0  0  0
   -0.7200   -3.9835    0.0000 C   0  0  0  0  0  0  0  0  0
    0.8449   -5.4356    0.0000 C   0  0  0  0  0  0  0  0  0
    0.5093   -6.1893    0.0000 C   0  0  0  0  0  0  0  0  0
    0.9942   -6.8567    0.0000 N   0  0  0  0  0  0  0  0  0
   -2.1960   -1.4361    0.0000 C   0  0  0  0  0  0  0  0  0
   -2.1960   -2.2611    0.0000 O   0  0  0  0  0  0  0  0  0
   -2.9105   -2.6736    0.0000 C   0  0  0  0  0  0  0  0  0
   -2.9105   -1.0236    0.0000 C   0  0  0  0  0  0  0  0  0
   -2.9105   -0.1986    0.0000 C   0  0  0  0  0  0  0  0  0
  1  2  1  0  0  0  0
  2  3  4  0  0  0  0
  2 20  4  0  0  0  0
  3  4  4  0  0  0  0
  4  5  1  0  0  0  0
  4 16  4  0  0  0  0
  5  6  1  0  0  0  0
  6  7  1  0  0  0  0
  7  8  1  0  0  0  0
  8  9  1  0  0  0  0
  8 12  1  0  0  0  0
  9 10  1  0  0  0  0
 10 11  1  0  0  0  0
 10 13  1  0  0  0  0
 11 12  1  0  0  0  0
 13 14  1  0  0  0  0
 14 15  1  0  0  0  0
 16 17  1  0  0  0  0
 16 19  4  0  0  0  0
 17 18  1  0  0  0  0
 19 20  4  0  0  0  0
M  END
>  <Name_Molregno>
458469

>  <Dopamine transporter>
5.02

>  <Norepinephrine transporter>
4.86

>  <Serotonin transporter>
8.76

$$$$
458470
  Marvin  02231216192D 0   1.00000     0.00000     0

 27 29  0  0  1  0  0  0  0  0999 V2000
   -0.2955   -0.1757    0.0000 Br  0  0  0  0  0  0  0  0  0
    0.4190   -0.5882    0.0000 C   0  0  0  0  0  0  0  0  0
    1.1335   -0.1757    0.0000 C   0  0  0  0  0  0  0  0  0
    1.8480   -0.5882    0.0000 C   0  0  0  0  0  0  0  0  0
    2.5624   -0.1757    0.0000 C   0  0  0  0  0  0  0  0  0
    3.2769   -0.5882    0.0000 C   0  0  0  0  0  0  0  0  0
    3.9914   -0.1757    0.0000 N   0  0  0  0  0  0  0  0  0
    4.7058   -0.5882    0.0000 N   0  0  0  0  0  0  0  0  0
    5.4203   -0.1757    0.0000 C   0  0  0  0  0  0  0  0  0
    5.4203    0.6493    0.0000 C   0  0  0  0  0  0  0  0  0
    4.7058    1.0618    0.0000 C   0  0  0  0  0  0  0  0  0
    4.7058    1.8868    0.0000 C   0  0  0  0  0  0  0  0  0
    5.4203    2.2993    0.0000 C   0  0  0  0  0  0  0  0  0
    6.1348    1.8868    0.0000 C   0  0  0  0  0  0  0  0  0
    6.1348    1.0618    0.0000 C   0  0  0  0  0  0  0  0  0
    3.9914    0.6493    0.0000 C   0  0  0  0  0  0  0  0  0
    3.2769    1.0618    0.0000 O   0  0  0  0  0  0  0  0  0
    6.1348   -0.5882    0.0000 C   0  0  0  0  0  0  0  0  0
    6.8492   -0.1757    0.0000 C   0  0  0  0  0  0  0  0  0
    7.5637   -0.5882    0.0000 C   0  0  0  0  0  0  0  0  0
    8.2782   -0.1757    0.0000 O   0  0  0  0  0  0  0  0  0
    8.9927   -0.5882    0.0000 C   0  0  0  0  0  0  0  0  0
    7.5637   -1.4132    0.0000 C   0  0  0  0  0  0  0  0  0
    8.2782   -1.8257    0.0000 O   0  0  0  0  0  0  0  0  0
    8.9927   -1.4132    0.0000 C   0  0  0  0  0  0  0  0  0
    6.8492   -1.8257    0.0000 C   0  0  0  0  0  0  0  0  0
    6.1348   -1.4132    0.0000 C   0  0  0  0  0  0  0  0  0
  1  2  1  0  0  0  0
  2  3  1  0  0  0  0
  3  4  1  0  0  0  0
  4  5  1  0  0  0  0
  5  6  1  0  0  0  0
  6  7  1  0  0  0  0
  7  8  1  0  0  0  0
  7 16  1  0  0  0  0
  8  9  2  0  0  0  0
  9 10  1  0  0  0  0
  9 18  1  0  0  0  0
 10 11  1  0  0  0  0
 10 15  1  0  0  0  0
 11 12  1  0  0  0  0
 11 16  1  0  0  0  0
 12 13  1  0  0  0  0
 13 14  2  0  0  0  0
 14 15  1  0  0  0  0
 16 17  2  0  0  0  0
 18 19  4  0  0  0  0
 18 27  4  0  0  0  0
 19 20  4  0  0  0  0
 20 21  1  0  0  0  0
 20 23  4  0  0  0  0
 21 22  1  0  0  0  0
 23 24  1  0  0  0  0
 23 26  4  0  0  0  0
 24 25  1  0  0  0  0
 26 27  4  0  0  0  0
M  END
>  <Name_Molregno>
458470

>  <Dopamine transporter>
4.4

>  <Norepinephrine transporter>
4.65

>  <Serotonin transporter>
4.4

$$$$
458471
  Marvin  02231216192D 0   1.00000     0.00000     0

 45 49  0  0  1  0  0  0  0  0999 V2000
   -0.2010    0.9011    0.0000 F   0  0  0  0  0  0  0  0  0
    0.1345    0.1474    0.0000 C   0  0  0  0  0  0  0  0  0
    0.9550    0.0612    0.0000 C   0  0  0  0  0  0  0  0  0
    1.2906   -0.6925    0.0000 C   0  0  0  0  0  0  0  0  0
    2.1111   -0.7787    0.0000 C   0  0  0  0  0  0  0  0  0
    2.5960   -0.1113    0.0000 C   0  0  0  0  0  0  0  0  0
    3.4165   -0.1975    0.0000 C   0  0  0  0  0  0  0  0  0
    3.9685    0.4156    0.0000 O   0  0  0  0  0  0  0  0  0
    4.7222    0.0800    0.0000 C   0  0  0  0  0  0  0  0  0
    4.6359   -0.7405    0.0000 C   0  0  0  0  0  0  0  0  0
    3.8290   -0.9120    0.0000 C   0  0  0  0  0  0  0  0  0
    5.4366    0.4925    0.0000 C   0  0  0  0  0  0  0  0  0
    6.1511    0.0800    0.0000 C   0  0  0  0  0  0  0  0  0
    6.8656    0.4925    0.0000 N   0  0  0  0  0  0  0  0  0
    7.5801    0.0800    0.0000 C   0  0  0  0  0  0  0  0  0
    8.2945    0.4925    0.0000 C   0  0  0  0  0  0  0  0  0
    9.0090    0.0800    0.0000 C   0  0  0  0  0  0  0  0  0
    9.7235    0.4925    0.0000 C   0  0  0  0  0  0  0  0  0
   10.4379    0.0800    0.0000 C   0  0  0  0  0  0  0  0  0
   11.1524    0.4925    0.0000 N   0  0  0  0  0  0  0  0  0
   11.8669    0.0800    0.0000 N   0  0  0  0  0  0  0  0  0
   12.5814    0.4925    0.0000 C   0  0  0  0  0  0  0  0  0
   12.5814    1.3175    0.0000 C   0  0  0  0  0  0  0  0  0
   11.8669    1.7300    0.0000 C   0  0  0  0  0  0  0  0  0
   11.8669    2.5550    0.0000 C   0  0  0  0  0  0  0  0  0
   12.5814    2.9675    0.0000 C   0  0  0  0  0  0  0  0  0
   13.2958    2.5550    0.0000 C   0  0  0  0  0  0  0  0  0
   13.2958    1.7300    0.0000 C   0  0  0  0  0  0  0  0  0
   11.1524    1.3175    0.0000 C   0  0  0  0  0  0  0  0  0
   10.4379    1.7300    0.0000 O   0  0  0  0  0  0  0  0  0
   13.2958    0.0800    0.0000 C   0  0  0  0  0  0  0  0  0
   14.0103    0.4925    0.0000 C   0  0  0  0  0  0  0  0  0
   14.7248    0.0800    0.0000 C   0  0  0  0  0  0  0  0  0
   15.4392    0.4925    0.0000 O   0  0  0  0  0  0  0  0  0
   16.1537    0.0800    0.0000 C   0  0  0  0  0  0  0  0  0
   14.7248   -0.7450    0.0000 C   0  0  0  0  0  0  0  0  0
   15.4392   -1.1575    0.0000 O   0  0  0  0  0  0  0  0  0
   16.1537   -0.7450    0.0000 C   0  0  0  0  0  0  0  0  0
   14.0103   -1.1575    0.0000 C   0  0  0  0  0  0  0  0  0
   13.2958   -0.7450    0.0000 C   0  0  0  0  0  0  0  0  0
    0.8057   -1.3599    0.0000 C   0  0  0  0  0  0  0  0  0
    1.1412   -2.1136    0.0000 O   0  0  0  0  0  0  0  0  0
    0.6563   -2.7811    0.0000 C   0  0  0  0  0  0  0  0  0
   -0.0148   -1.2737    0.0000 C   0  0  0  0  0  0  0  0  0
   -0.3504   -0.5200    0.0000 C   0  0  0  0  0  0  0  0  0
  1  2  1  0  0  0  0
  2  3  4  0  0  0  0
  2 45  4  0  0  0  0
  3  4  4  0  0  0  0
  4  5  1  0  0  0  0
  4 41  4  0  0  0  0
  5  6  1  0  0  0  0
  6  7  1  0  0  0  0
  7  8  1  0  0  0  0
  7 11  1  0  0  0  0
  8  9  1  0  0  0  0
  9 10  1  0  0  0  0
  9 12  1  0  0  0  0
 10 11  1  0  0  0  0
 12 13  1  0  0  0  0
 13 14  1  0  0  0  0
 14 15  1  0  0  0  0
 15 16  1  0  0  0  0
 16 17  1  0  0  0  0
 17 18  1  0  0  0  0
 18 19  1  0  0  0  0
 19 20  1  0  0  0  0
 20 21  1  0  0  0  0
 20 29  1  0  0  0  0
 21 22  2  0  0  0  0
 22 23  1  0  0  0  0
 22 31  1  0  0  0  0
 23 24  1  0  0  0  0
 23 28  1  0  0  0  0
 24 25  1  0  0  0  0
 24 29  1  0  0  0  0
 25 26  1  0  0  0  0
 26 27  2  0  0  0  0
 27 28  1  0  0  0  0
 29 30  2  0  0  0  0
 31 32  4  0  0  0  0
 31 40  4  0  0  0  0
 32 33  4  0  0  0  0
 33 34  1  0  0  0  0
 33 36  4  0  0  0  0
 34 35  1  0  0  0  0
 36 37  1  0  0  0  0
 36 39  4  0  0  0  0
 37 38  1  0  0  0  0
 39 40  4  0  0  0  0
 41 42  1  0  0  0  0
 41 44  4  0  0  0  0
 42 43  1  0  0  0  0
 44 45  4  0  0  0  0
M  END
>  <Name_Molregno>
458471

>  <Dopamine transporter>
5.61

>  <Norepinephrine transporter>
5.76

>  <Serotonin transporter>
6.81

$$$$
458472
  Marvin  02231216192D 0   1.00000     0.00000     0

 46 50  0  0  1  0  0  0  0  0999 V2000
    1.9729   -0.9173    0.0000 F   0  0  0  0  0  0  0  0  0
    1.1524   -0.8310    0.0000 C   0  0  0  0  0  0  0  0  0
    0.6675   -1.4985    0.0000 C   0  0  0  0  0  0  0  0  0
   -0.1530   -1.4122    0.0000 C   0  0  0  0  0  0  0  0  0
   -0.4886   -0.6586    0.0000 C   0  0  0  0  0  0  0  0  0
   -1.3091   -0.5723    0.0000 O   0  0  0  0  0  0  0  0  0
   -1.7940   -1.2398    0.0000 C   0  0  0  0  0  0  0  0  0
   -0.0037    0.0089    0.0000 C   0  0  0  0  0  0  0  0  0
    0.8168   -0.0774    0.0000 C   0  0  0  0  0  0  0  0  0
    1.3017    0.5901    0.0000 C   0  0  0  0  0  0  0  0  0
    2.1222    0.5038    0.0000 C   0  0  0  0  0  0  0  0  0
    2.6072    1.1713    0.0000 C   0  0  0  0  0  0  0  0  0
    3.4276    1.0850    0.0000 C   0  0  0  0  0  0  0  0  0
    3.9797    1.6981    0.0000 O   0  0  0  0  0  0  0  0  0
    4.7333    1.3626    0.0000 C   0  0  0  0  0  0  0  0  0
    4.6471    0.5421    0.0000 C   0  0  0  0  0  0  0  0  0
    3.8401    0.3706    0.0000 C   0  0  0  0  0  0  0  0  0
    5.4478    1.7751    0.0000 C   0  0  0  0  0  0  0  0  0
    6.1623    1.3626    0.0000 C   0  0  0  0  0  0  0  0  0
    6.8768    1.7751    0.0000 N   0  0  0  0  0  0  0  0  0
    7.5912    1.3626    0.0000 C   0  0  0  0  0  0  0  0  0
    8.3057    1.7751    0.0000 C   0  0  0  0  0  0  0  0  0
    9.0202    1.3626    0.0000 C   0  0  0  0  0  0  0  0  0
    9.7346    1.7751    0.0000 C   0  0  0  0  0  0  0  0  0
   10.4491    1.3626    0.0000 C   0  0  0  0  0  0  0  0  0
   11.1636    1.7751    0.0000 N   0  0  0  0  0  0  0  0  0
   11.8781    1.3626    0.0000 N   0  0  0  0  0  0  0  0  0
   12.5925    1.7751    0.0000 C   0  0  0  0  0  0  0  0  0
   12.5925    2.6001    0.0000 C   0  0  0  0  0  0  0  0  0
   11.8781    3.0126    0.0000 C   0  0  0  0  0  0  0  0  0
   11.8781    3.8376    0.0000 C   0  0  0  0  0  0  0  0  0
   12.5925    4.2501    0.0000 C   0  0  0  0  0  0  0  0  0
   13.3070    3.8376    0.0000 C   0  0  0  0  0  0  0  0  0
   13.3070    3.0126    0.0000 C   0  0  0  0  0  0  0  0  0
   11.1636    2.6001    0.0000 C   0  0  0  0  0  0  0  0  0
   10.4491    3.0126    0.0000 O   0  0  0  0  0  0  0  0  0
   13.3070    1.3626    0.0000 C   0  0  0  0  0  0  0  0  0
   14.0215    1.7751    0.0000 C   0  0  0  0  0  0  0  0  0
   14.7359    1.3626    0.0000 C   0  0  0  0  0  0  0  0  0
   15.4504    1.7751    0.0000 O   0  0  0  0  0  0  0  0  0
   16.1649    1.3626    0.0000 C   0  0  0  0  0  0  0  0  0
   14.7359    0.5376    0.0000 C   0  0  0  0  0  0  0  0  0
   15.4504    0.1251    0.0000 O   0  0  0  0  0  0  0  0  0
   16.1649    0.5376    0.0000 C   0  0  0  0  0  0  0  0  0
   14.0215    0.1251    0.0000 C   0  0  0  0  0  0  0  0  0
   13.3070    0.5376    0.0000 C   0  0  0  0  0  0  0  0  0
  1  2  1  0  0  0  0
  2  3  4  0  0  0  0
  2  9  4  0  0  0  0
  3  4  4  0  0  0  0
  4  5  4  0  0  0  0
  5  6  1  0  0  0  0
  5  8  4  0  0  0  0
  6  7  1  0  0  0  0
  8  9  4  0  0  0  0
  9 10  1  0  0  0  0
 10 11  1  0  0  0  0
 11 12  1  0  0  0  0
 12 13  1  0  0  0  0
 13 14  1  0  0  0  0
 13 17  1  0  0  0  0
 14 15  1  0  0  0  0
 15 16  1  0  0  0  0
 15 18  1  0  0  0  0
 16 17  1  0  0  0  0
 18 19  1  0  0  0  0
 19 20  1  0  0  0  0
 20 21  1  0  0  0  0
 21 22  1  0  0  0  0
 22 23  1  0  0  0  0
 23 24  1  0  0  0  0
 24 25  1  0  0  0  0
 25 26  1  0  0  0  0
 26 27  1  0  0  0  0
 26 35  1  0  0  0  0
 27 28  2  0  0  0  0
 28 29  1  0  0  0  0
 28 37  1  0  0  0  0
 29 30  1  0  0  0  0
 29 34  1  0  0  0  0
 30 31  1  0  0  0  0
 30 35  1  0  0  0  0
 31 32  1  0  0  0  0
 32 33  2  0  0  0  0
 33 34  1  0  0  0  0
 35 36  2  0  0  0  0
 37 38  4  0  0  0  0
 37 46  4  0  0  0  0
 38 39  4  0  0  0  0
 39 40  1  0  0  0  0
 39 42  4  0  0  0  0
 40 41  1  0  0  0  0
 42 43  1  0  0  0  0
 42 45  4  0  0  0  0
 43 44  1  0  0  0  0
 45 46  4  0  0  0  0
M  END
>  <Name_Molregno>
458472

>  <Dopamine transporter>
5.27

>  <Norepinephrine transporter>
5.13

>  <Serotonin transporter>
6.71

$$$$
458542
  Marvin  02231216192D 0   1.00000     0.00000     0

 20 21  0  0  1  0  0  0  0  0999 V2000
    2.8825    0.8423    0.0000 F   0  0  0  0  0  0  0  0  0
    2.1680    0.4298    0.0000 C   0  0  0  0  0  0  0  0  0
    2.1680   -0.3952    0.0000 C   0  0  0  0  0  0  0  0  0
    1.4535   -0.8077    0.0000 C   0  0  0  0  0  0  0  0  0
    1.4535   -1.6327    0.0000 C   0  0  0  0  0  0  0  0  0
    2.1680   -2.0452    0.0000 C   0  0  0  0  0  0  0  0  0
    2.1680   -2.8702    0.0000 C   0  0  0  0  0  0  0  0  0
    2.8354   -3.3551    0.0000 O   0  0  0  0  0  0  0  0  0
    2.5805   -4.1397    0.0000 C   0  0  0  0  0  0  0  0  0
    1.7555   -4.1397    0.0000 C   0  0  0  0  0  0  0  0  0
    1.5006   -3.3551    0.0000 C   0  0  0  0  0  0  0  0  0
    3.0654   -4.8071    0.0000 C   0  0  0  0  0  0  0  0  0
    3.8859   -4.7209    0.0000 C   0  0  0  0  0  0  0  0  0
    4.3708   -5.3883    0.0000 N   0  0  0  0  0  0  0  0  0
    5.1913   -5.3021    0.0000 C   0  0  0  0  0  0  0  0  0
    0.7391   -0.3952    0.0000 C   0  0  0  0  0  0  0  0  0
    0.0246   -0.8077    0.0000 O   0  0  0  0  0  0  0  0  0
   -0.6899   -0.3952    0.0000 C   0  0  0  0  0  0  0  0  0
    0.7391    0.4298    0.0000 C   0  0  0  0  0  0  0  0  0
    1.4535    0.8423    0.0000 C   0  0  0  0  0  0  0  0  0
  1  2  1  0  0  0  0
  2  3  4  0  0  0  0
  2 20  4  0  0  0  0
  3  4  4  0  0  0  0
  4  5  1  0  0  0  0
  4 16  4  0  0  0  0
  5  6  1  0  0  0  0
  6  7  1  0  0  0  0
  7  8  1  0  0  0  0
  7 11  1  0  0  0  0
  8  9  1  0  0  0  0
  9 10  1  0  0  0  0
  9 12  1  0  0  0  0
 10 11  1  0  0  0  0
 12 13  1  0  0  0  0
 13 14  1  0  0  0  0
 14 15  1  0  0  0  0
 16 17  1  0  0  0  0
 16 19  4  0  0  0  0
 17 18  1  0  0  0  0
 19 20  4  0  0  0  0
M  END
>  <Name_Molregno>
458542

>  <Dopamine transporter>
4.59

>  <Norepinephrine transporter>
4.86

>  <Serotonin transporter>
7.67

$$$$
472103
  Marvin  02231216192D 0   1.00000     0.00000     0

 21 23  0  0  1  0  0  0  0  0999 V2000
    0.8404   -2.4390    0.0000 O   0  0  0  0  0  0  0  0  0
    0.8404   -3.2640    0.0000 C   0  0  0  0  0  0  0  0  0
    1.5549   -3.6765    0.0000 C   0  0  0  0  0  0  0  0  0
    2.2694   -3.2640    0.0000 N   0  0  0  0  0  0  0  0  0
    2.2694   -2.4390    0.0000 C   0  0  0  0  0  0  0  0  0
    1.5549   -2.0265    0.0000 C   0  0  0  0  0  0  0  0  0
    1.5549   -1.2015    0.0000 C   0  0  0  0  0  0  0  0  0
    0.8404   -0.7890    0.0000 O   0  0  0  0  0  0  0  0  0
    0.8404    0.0360    0.0000 C   0  0  0  0  0  0  0  0  0
    1.5549    0.4485    0.0000 C   0  0  0  0  0  0  0  0  0
    1.5549    1.2735    0.0000 C   0  0  0  0  0  0  0  0  0
    0.8404    1.6860    0.0000 C   0  0  0  0  0  0  0  0  0
    0.1259    1.2735    0.0000 C   0  0  0  0  0  0  0  0  0
    0.1259    0.4485    0.0000 C   0  0  0  0  0  0  0  0  0
   -0.5885    0.0360    0.0000 C   0  0  0  0  0  0  0  0  0
    2.2694   -0.7890    0.0000 C   0  0  0  0  0  0  0  0  0
    2.2694    0.0360    0.0000 C   0  0  0  0  0  0  0  0  0
    2.9838    0.4485    0.0000 C   0  0  0  0  0  0  0  0  0
    3.6983    0.0360    0.0000 C   0  0  0  0  0  0  0  0  0
    3.6983   -0.7890    0.0000 C   0  0  0  0  0  0  0  0  0
    2.9838   -1.2015    0.0000 C   0  0  0  0  0  0  0  0  0
  1  2  1  0  0  0  0
  1  6  1  0  0  0  0
  2  3  1  0  0  0  0
  3  4  1  0  0  0  0
  4  5  1  0  0  0  0
  5  6  1  0  0  0  0
  6  7  1  0  0  0  0
  7  8  1  0  0  0  0
  7 16  1  0  0  0  0
  8  9  1  0  0  0  0
  9 10  4  0  0  0  0
  9 14  4  0  0  0  0
 10 11  4  0  0  0  0
 11 12  4  0  0  0  0
 12 13  4  0  0  0  0
 13 14  4  0  0  0  0
 14 15  1  0  0  0  0
 16 17  4  0  0  0  0
 16 21  4  0  0  0  0
 17 18  4  0  0  0  0
 18 19  4  0  0  0  0
 19 20  4  0  0  0  0
 20 21  4  0  0  0  0
M  END
>  <Name_Molregno>
472103

>  <Dopamine transporter>
6.49

>  <Norepinephrine transporter>
8.99

>  <Serotonin transporter>
7.03

$$$$
472104
  Marvin  02231216192D 0   1.00000     0.00000     0

 23 25  0  0  1  0  0  0  0  0999 V2000
   -0.8848    1.5310    0.0000 F   0  0  0  0  0  0  0  0  0
   -0.8848    0.7060    0.0000 C   0  0  0  0  0  0  0  0  0
   -1.5993    0.2935    0.0000 C   0  0  0  0  0  0  0  0  0
   -1.5993   -0.5315    0.0000 C   0  0  0  0  0  0  0  0  0
   -0.8848   -0.9440    0.0000 C   0  0  0  0  0  0  0  0  0
   -0.8848   -1.7690    0.0000 C   0  0  0  0  0  0  0  0  0
   -1.5993   -2.1815    0.0000 C   0  0  0  0  0  0  0  0  0
   -2.3137   -1.7690    0.0000 C   0  0  0  0  0  0  0  0  0
   -2.3137   -0.9440    0.0000 C   0  0  0  0  0  0  0  0  0
   -3.0282   -0.5315    0.0000 O   0  0  0  0  0  0  0  0  0
   -3.7427   -0.9440    0.0000 C   0  0  0  0  0  0  0  0  0
   -4.4572   -0.5315    0.0000 C   0  0  0  0  0  0  0  0  0
   -5.1716   -0.9440    0.0000 O   0  0  0  0  0  0  0  0  0
   -5.8861   -0.5315    0.0000 C   0  0  0  0  0  0  0  0  0
   -5.8861    0.2935    0.0000 C   0  0  0  0  0  0  0  0  0
   -5.1716    0.7060    0.0000 N   0  0  0  0  0  0  0  0  0
   -4.4572    0.2935    0.0000 C   0  0  0  0  0  0  0  0  0
   -3.7427   -1.7690    0.0000 C   0  0  0  0  0  0  0  0  0
   -3.0282   -2.1815    0.0000 C   0  0  0  0  0  0  0  0  0
   -3.0282   -3.0065    0.0000 C   0  0  0  0  0  0  0  0  0
   -3.7427   -3.4190    0.0000 C   0  0  0  0  0  0  0  0  0
   -4.4572   -3.0065    0.0000 C   0  0  0  0  0  0  0  0  0
   -4.4572   -2.1815    0.0000 C   0  0  0  0  0  0  0  0  0
  1  2  1  0  0  0  0
  2  3  1  0  0  0  0
  3  4  1  0  0  0  0
  4  5  4  0  0  0  0
  4  9  4  0  0  0  0
  5  6  4  0  0  0  0
  6  7  4  0  0  0  0
  7  8  4  0  0  0  0
  8  9  4  0  0  0  0
  9 10  1  0  0  0  0
 10 11  1  0  0  0  0
 11 12  1  0  0  0  0
 11 18  1  0  0  0  0
 12 13  1  0  0  0  0
 12 17  1  0  0  0  0
 13 14  1  0  0  0  0
 14 15  1  0  0  0  0
 15 16  1  0  0  0  0
 16 17  1  0  0  0  0
 18 19  4  0  0  0  0
 18 23  4  0  0  0  0
 19 20  4  0  0  0  0
 20 21  4  0  0  0  0
 21 22  4  0  0  0  0
 22 23  4  0  0  0  0
M  END
>  <Name_Molregno>
472104

>  <Dopamine transporter>
5.22

>  <Norepinephrine transporter>
8.5

>  <Serotonin transporter>
6.37

$$$$
472105
  Marvin  02231216192D 0   1.00000     0.00000     0

 24 26  0  0  1  0  0  0  0  0999 V2000
    5.7105    0.0841    0.0000 F   0  0  0  0  0  0  0  0  0
    4.9961   -0.3284    0.0000 C   0  0  0  0  0  0  0  0  0
    4.9961   -1.1534    0.0000 C   0  0  0  0  0  0  0  0  0
    4.2816   -1.5659    0.0000 C   0  0  0  0  0  0  0  0  0
    4.2816   -2.3909    0.0000 C   0  0  0  0  0  0  0  0  0
    4.9961   -2.8034    0.0000 C   0  0  0  0  0  0  0  0  0
    4.9961   -3.6284    0.0000 C   0  0  0  0  0  0  0  0  0
    4.2816   -4.0409    0.0000 C   0  0  0  0  0  0  0  0  0
    3.5671   -3.6284    0.0000 C   0  0  0  0  0  0  0  0  0
    3.5671   -2.8034    0.0000 C   0  0  0  0  0  0  0  0  0
    2.8526   -2.3909    0.0000 O   0  0  0  0  0  0  0  0  0
    2.1382   -2.8034    0.0000 C   0  0  0  0  0  0  0  0  0
    2.1382   -3.6284    0.0000 C   0  0  0  0  0  0  0  0  0
    2.8526   -4.0409    0.0000 O   0  0  0  0  0  0  0  0  0
    2.8526   -4.8659    0.0000 C   0  0  0  0  0  0  0  0  0
    2.1382   -5.2784    0.0000 C   0  0  0  0  0  0  0  0  0
    1.4237   -4.8659    0.0000 N   0  0  0  0  0  0  0  0  0
    1.4237   -4.0409    0.0000 C   0  0  0  0  0  0  0  0  0
    1.4237   -2.3909    0.0000 C   0  0  0  0  0  0  0  0  0
    0.7092   -2.8034    0.0000 C   0  0  0  0  0  0  0  0  0
   -0.0052   -2.3909    0.0000 C   0  0  0  0  0  0  0  0  0
   -0.0052   -1.5659    0.0000 C   0  0  0  0  0  0  0  0  0
    0.7092   -1.1534    0.0000 C   0  0  0  0  0  0  0  0  0
    1.4237   -1.5659    0.0000 C   0  0  0  0  0  0  0  0  0
  1  2  1  0  0  0  0
  2  3  1  0  0  0  0
  3  4  1  0  0  0  0
  4  5  1  0  0  0  0
  5  6  4  0  0  0  0
  5 10  4  0  0  0  0
  6  7  4  0  0  0  0
  7  8  4  0  0  0  0
  8  9  4  0  0  0  0
  9 10  4  0  0  0  0
 10 11  1  0  0  0  0
 11 12  1  0  0  0  0
 12 13  1  0  0  0  0
 12 19  1  0  0  0  0
 13 14  1  0  0  0  0
 13 18  1  0  0  0  0
 14 15  1  0  0  0  0
 15 16  1  0  0  0  0
 16 17  1  0  0  0  0
 17 18  1  0  0  0  0
 19 20  4  0  0  0  0
 19 24  4  0  0  0  0
 20 21  4  0  0  0  0
 21 22  4  0  0  0  0
 22 23  4  0  0  0  0
 23 24  4  0  0  0  0
M  END
>  <Name_Molregno>
472105

>  <Dopamine transporter>
5.22

>  <Norepinephrine transporter>
8.43

>  <Serotonin transporter>
6.33

$$$$
473109
  Marvin  02231216192D 0   1.00000     0.00000     0

 21 22  0  0  1  0  0  0  0  0999 V2000
    6.3079    1.6156    0.0000 F   0  0  0  0  0  0  0  0  0
    5.5934    1.2031    0.0000 C   0  0  0  0  0  0  0  0  0
    5.1809    1.9176    0.0000 F   0  0  0  0  0  0  0  0  0
    6.0059    0.4887    0.0000 F   0  0  0  0  0  0  0  0  0
    4.8790    0.7906    0.0000 C   0  0  0  0  0  0  0  0  0
    4.8790   -0.0344    0.0000 C   0  0  0  0  0  0  0  0  0
    4.1645   -0.4469    0.0000 C   0  0  0  0  0  0  0  0  0
    3.4500   -0.0344    0.0000 C   0  0  0  0  0  0  0  0  0
    2.7355   -0.4469    0.0000 O   0  0  0  0  0  0  0  0  0
    2.7355   -1.2719    0.0000 C   0  0  0  0  0  0  0  0  0
    3.4500   -1.6844    0.0000 C   0  0  0  0  0  0  0  0  0
    4.1645   -1.2719    0.0000 C   0  0  0  0  0  0  0  0  0
    4.8790   -1.6844    0.0000 N   0  0  0  0  0  0  0  0  0
    2.0211   -1.6844    0.0000 C   0  0  0  0  0  0  0  0  0
    2.0211   -2.5094    0.0000 C   0  0  0  0  0  0  0  0  0
    1.3066   -2.9219    0.0000 C   0  0  0  0  0  0  0  0  0
    0.5921   -2.5094    0.0000 C   0  0  0  0  0  0  0  0  0
    0.5921   -1.6844    0.0000 C   0  0  0  0  0  0  0  0  0
    1.3066   -1.2719    0.0000 C   0  0  0  0  0  0  0  0  0
    3.4500    0.7906    0.0000 C   0  0  0  0  0  0  0  0  0
    4.1645    1.2031    0.0000 C   0  0  0  0  0  0  0  0  0
  1  2  1  0  0  0  0
  2  3  1  0  0  0  0
  2  4  1  0  0  0  0
  2  5  1  0  0  0  0
  5  6  4  0  0  0  0
  5 21  4  0  0  0  0
  6  7  4  0  0  0  0
  7  8  4  0  0  0  0
  8  9  1  0  0  0  0
  8 20  4  0  0  0  0
  9 10  1  0  0  0  0
 10 11  1  0  0  0  0
 10 14  1  0  0  0  0
 11 12  1  0  0  0  0
 12 13  1  0  0  0  0
 14 15  4  0  0  0  0
 14 19  4  0  0  0  0
 15 16  4  0  0  0  0
 16 17  4  0  0  0  0
 17 18  4  0  0  0  0
 18 19  4  0  0  0  0
 20 21  4  0  0  0  0
M  END
>  <Name_Molregno>
473109

>  <5-HT1A>
5

>  <5-HT2A>
6.53

>  <5-HT2C>
7.04

>  <DOPAMINE D2>
5

>  <Dopamine transporter>
5.59

>  <HISTAMINE H1>
5

>  <Muscarinic acetylcholine receptor M1>
5.92

>  <Muscarinic acetylcholine receptor M2>
5.34

>  <Muscarinic acetylcholine receptor M3>
6.12

>  <Muscarinic acetylcholine receptor M4>
5.59

>  <Muscarinic acetylcholine receptor M5>
5.66

>  <Norepinephrine transporter>
5.35

>  <Serotonin transporter>
7.79

$$$$
473175
  Marvin  02231216192D 0   1.00000     0.00000     0

 47 51  0  0  1  0  0  0  0  0999 V2000
  -12.8382   -0.1705    0.0000 F   0  0  0  0  0  0  0  0  0
  -12.1237    0.2420    0.0000 C   0  0  0  0  0  0  0  0  0
  -11.7112   -0.4725    0.0000 F   0  0  0  0  0  0  0  0  0
  -12.5362    0.9565    0.0000 F   0  0  0  0  0  0  0  0  0
  -11.4093    0.6545    0.0000 C   0  0  0  0  0  0  0  0  0
  -11.4093    1.4795    0.0000 C   0  0  0  0  0  0  0  0  0
  -10.6948    1.8920    0.0000 C   0  0  0  0  0  0  0  0  0
   -9.9803    1.4795    0.0000 C   0  0  0  0  0  0  0  0  0
   -9.2659    1.8920    0.0000 O   0  0  0  0  0  0  0  0  0
   -8.5514    1.4795    0.0000 C   0  0  0  0  0  0  0  0  0
   -7.8369    1.8920    0.0000 C   0  0  0  0  0  0  0  0  0
   -7.1224    1.4795    0.0000 C   0  0  0  0  0  0  0  0  0
   -6.4080    1.8920    0.0000 N   0  0  0  0  0  0  0  0  0
   -5.6935    1.4795    0.0000 C   0  0  0  0  0  0  0  0  0
   -4.9790    1.8920    0.0000 C   0  0  0  0  0  0  0  0  0
   -4.2646    1.4795    0.0000 C   0  0  0  0  0  0  0  0  0
   -3.5501    1.8920    0.0000 C   0  0  0  0  0  0  0  0  0
   -2.8356    1.4795    0.0000 C   0  0  0  0  0  0  0  0  0
   -2.1211    1.8920    0.0000 N   0  0  0  0  0  0  0  0  0
   -1.4067    1.4795    0.0000 N   0  0  0  0  0  0  0  0  0
   -0.6922    1.8920    0.0000 C   0  0  0  0  0  0  0  0  0
   -0.6922    2.7170    0.0000 C   0  0  0  0  0  0  0  0  0
   -1.4067    3.1295    0.0000 C   0  0  0  0  0  0  0  0  0
   -1.4067    3.9545    0.0000 C   0  0  0  0  0  0  0  0  0
   -0.6922    4.3670    0.0000 C   0  0  0  0  0  0  0  0  0
    0.0223    3.9545    0.0000 C   0  0  0  0  0  0  0  0  0
    0.0223    3.1295    0.0000 C   0  0  0  0  0  0  0  0  0
   -2.1211    2.7170    0.0000 C   0  0  0  0  0  0  0  0  0
   -2.8356    3.1295    0.0000 O   0  0  0  0  0  0  0  0  0
    0.0223    1.4795    0.0000 C   0  0  0  0  0  0  0  0  0
    0.7367    1.8920    0.0000 C   0  0  0  0  0  0  0  0  0
    1.4512    1.4795    0.0000 C   0  0  0  0  0  0  0  0  0
    2.1657    1.8920    0.0000 O   0  0  0  0  0  0  0  0  0
    2.8802    1.4795    0.0000 C   0  0  0  0  0  0  0  0  0
    1.4512    0.6545    0.0000 C   0  0  0  0  0  0  0  0  0
    2.1657    0.2420    0.0000 O   0  0  0  0  0  0  0  0  0
    2.8802    0.6545    0.0000 C   0  0  0  0  0  0  0  0  0
    0.7367    0.2420    0.0000 C   0  0  0  0  0  0  0  0  0
    0.0223    0.6545    0.0000 C   0  0  0  0  0  0  0  0  0
   -8.5514    0.6545    0.0000 C   0  0  0  0  0  0  0  0  0
   -7.8369    0.2420    0.0000 C   0  0  0  0  0  0  0  0  0
   -7.8369   -0.5830    0.0000 C   0  0  0  0  0  0  0  0  0
   -8.5514   -0.9955    0.0000 C   0  0  0  0  0  0  0  0  0
   -9.2659   -0.5830    0.0000 C   0  0  0  0  0  0  0  0  0
   -9.2659    0.2420    0.0000 C   0  0  0  0  0  0  0  0  0
   -9.9803    0.6545    0.0000 C   0  0  0  0  0  0  0  0  0
  -10.6948    0.2420    0.0000 C   0  0  0  0  0  0  0  0  0
  1  2  1  0  0  0  0
  2  3  1  0  0  0  0
  2  4  1  0  0  0  0
  2  5  1  0  0  0  0
  5  6  4  0  0  0  0
  5 47  4  0  0  0  0
  6  7  4  0  0  0  0
  7  8  4  0  0  0  0
  8  9  1  0  0  0  0
  8 46  4  0  0  0  0
  9 10  1  0  0  0  0
 10 11  1  0  0  0  0
 10 40  1  0  0  0  0
 11 12  1  0  0  0  0
 12 13  1  0  0  0  0
 13 14  1  0  0  0  0
 14 15  1  0  0  0  0
 15 16  1  0  0  0  0
 16 17  1  0  0  0  0
 17 18  1  0  0  0  0
 18 19  1  0  0  0  0
 19 20  1  0  0  0  0
 19 28  1  0  0  0  0
 20 21  2  0  0  0  0
 21 22  1  0  0  0  0
 21 30  1  0  0  0  0
 22 23  1  0  0  0  0
 22 27  1  0  0  0  0
 23 24  1  0  0  0  0
 23 28  1  0  0  0  0
 24 25  1  0  0  0  0
 25 26  2  0  0  0  0
 26 27  1  0  0  0  0
 28 29  2  0  0  0  0
 30 31  4  0  0  0  0
 30 39  4  0  0  0  0
 31 32  4  0  0  0  0
 32 33  1  0  0  0  0
 32 35  4  0  0  0  0
 33 34  1  0  0  0  0
 35 36  1  0  0  0  0
 35 38  4  0  0  0  0
 36 37  1  0  0  0  0
 38 39  4  0  0  0  0
 40 41  4  0  0  0  0
 40 45  4  0  0  0  0
 41 42  4  0  0  0  0
 42 43  4  0  0  0  0
 43 44  4  0  0  0  0
 44 45  4  0  0  0  0
 46 47  4  0  0  0  0
M  END
>  <Name_Molregno>
473175

>  <Dopamine transporter>
5.46

>  <Norepinephrine transporter>
5.26

>  <Serotonin transporter>
6.86

$$$$
478777
  Marvin  02231216192D 0   1.00000     0.00000     0

 25 27  0  0  0  0  0  0  0  0999 V2000
    1.0414    1.7705    0.0000 F   0  0  0  0  0  0  0  0  0
    1.0414    0.9455    0.0000 C   0  0  0  0  0  0  0  0  0
    1.7559    0.5330    0.0000 C   0  0  0  0  0  0  0  0  0
    1.7559   -0.2920    0.0000 C   0  0  0  0  0  0  0  0  0
    1.0414   -0.7045    0.0000 C   0  0  0  0  0  0  0  0  0
    0.3270   -0.2920    0.0000 C   0  0  0  0  0  0  0  0  0
    0.3270    0.5330    0.0000 C   0  0  0  0  0  0  0  0  0
    2.4704   -0.7045    0.0000 C   0  0  0  0  0  0  0  0  0
    3.1849   -0.2920    0.0000 C   0  0  0  0  0  0  0  0  0
    3.8993   -0.7045    0.0000 C   0  0  0  0  0  0  0  0  0
    3.8993   -1.5295    0.0000 C   0  0  0  0  0  0  0  0  0
    3.1849   -1.9420    0.0000 C   0  0  0  0  0  0  0  0  0
    2.4704   -1.5295    0.0000 C   0  0  0  0  0  0  0  0  0
    1.7559   -1.9420    0.0000 C   0  0  0  0  0  0  0  0  0
    1.0414   -2.3545    0.0000 N   0  0  0  0  0  0  0  0  0
    4.6138   -1.9420    0.0000 C   0  0  0  0  0  0  0  0  0
    4.6138   -2.7670    0.0000 O   0  0  0  0  0  0  0  0  0
    5.3283   -1.5295    0.0000 N   0  0  0  0  0  0  0  0  0
    6.0427   -1.9420    0.0000 C   0  0  0  0  0  0  0  0  0
    6.7572   -1.5295    0.0000 N   0  0  0  0  0  0  0  0  0
    7.4717   -1.9420    0.0000 C   0  0  0  0  0  0  0  0  0
    7.4717   -2.7670    0.0000 C   0  0  0  0  0  0  0  0  0
    6.7572   -3.1795    0.0000 C   0  0  0  0  0  0  0  0  0
    6.0427   -2.7670    0.0000 C   0  0  0  0  0  0  0  0  0
    8.1862   -1.5295    0.0000 C   0  0  0  0  0  0  0  0  0
  1  2  1  0  0  0  0
  2  3  4  0  0  0  0
  2  7  4  0  0  0  0
  3  4  4  0  0  0  0
  4  5  4  0  0  0  0
  4  8  1  0  0  0  0
  5  6  4  0  0  0  0
  6  7  4  0  0  0  0
  8  9  4  0  0  0  0
  8 13  4  0  0  0  0
  9 10  4  0  0  0  0
 10 11  4  0  0  0  0
 11 12  4  0  0  0  0
 11 16  1  0  0  0  0
 12 13  4  0  0  0  0
 13 14  1  0  0  0  0
 14 15  3  0  0  0  0
 16 17  2  0  0  0  0
 16 18  1  0  0  0  0
 18 19  1  0  0  0  0
 19 20  4  0  0  0  0
 19 24  4  0  0  0  0
 20 21  4  0  0  0  0
 21 22  4  0  0  0  0
 21 25  1  0  0  0  0
 22 23  4  0  0  0  0
 23 24  4  0  0  0  0
M  END
>  <Name_Molregno>
478777

>  <Dopamine transporter>
5.22

>  <Norepinephrine transporter>
5.22

>  <Serotonin transporter>
5.22

$$$$
479324
  Marvin  02231216192D 0   1.00000     0.00000     0

 21 23  0  0  0  0  0  0  0  0999 V2000
   -1.2972    1.9178    0.0000 S   0  0  0  0  0  0  0  0  0
   -1.5521    1.1332    0.0000 C   0  0  0  0  0  0  0  0  0
   -2.3771    1.1332    0.0000 C   0  0  0  0  0  0  0  0  0
   -2.6321    1.9178    0.0000 N   0  0  0  0  0  0  0  0  0
   -1.9646    2.4027    0.0000 C   0  0  0  0  0  0  0  0  0
   -1.9646    3.2277    0.0000 C   0  0  0  0  0  0  0  0  0
   -2.8620    0.4658    0.0000 C   0  0  0  0  0  0  0  0  0
   -3.3470   -0.2017    0.0000 C   0  0  0  0  0  0  0  0  0
   -3.8319   -0.8691    0.0000 C   0  0  0  0  0  0  0  0  0
   -3.4963   -1.6228    0.0000 C   0  0  0  0  0  0  0  0  0
   -3.9813   -2.2902    0.0000 C   0  0  0  0  0  0  0  0  0
   -4.8017   -2.2040    0.0000 C   0  0  0  0  0  0  0  0  0
   -5.1373   -1.4503    0.0000 C   0  0  0  0  0  0  0  0  0
   -5.9578   -1.3641    0.0000 F   0  0  0  0  0  0  0  0  0
   -4.6524   -0.7829    0.0000 C   0  0  0  0  0  0  0  0  0
   -3.6457   -3.0439    0.0000 C   0  0  0  0  0  0  0  0  0
   -2.8252   -3.1301    0.0000 C   0  0  0  0  0  0  0  0  0
   -2.4897   -3.8838    0.0000 C   0  0  0  0  0  0  0  0  0
   -2.9746   -4.5513    0.0000 C   0  0  0  0  0  0  0  0  0
   -3.7951   -4.4650    0.0000 N   0  0  0  0  0  0  0  0  0
   -4.1306   -3.7113    0.0000 C   0  0  0  0  0  0  0  0  0
  1  2  4  0  0  0  0
  1  5  4  0  0  0  0
  2  3  4  0  0  0  0
  3  4  4  0  0  0  0
  3  7  1  0  0  0  0
  4  5  4  0  0  0  0
  5  6  1  0  0  0  0
  7  8  3  0  0  0  0
  8  9  1  0  0  0  0
  9 10  4  0  0  0  0
  9 15  4  0  0  0  0
 10 11  4  0  0  0  0
 11 12  4  0  0  0  0
 11 16  1  0  0  0  0
 12 13  4  0  0  0  0
 13 14  1  0  0  0  0
 13 15  4  0  0  0  0
 16 17  4  0  0  0  0
 16 21  4  0  0  0  0
 17 18  4  0  0  0  0
 18 19  4  0  0  0  0
 19 20  4  0  0  0  0
 20 21  4  0  0  0  0
M  END
>  <Name_Molregno>
479324

>  <Dopamine transporter>
5.22

>  <Norepinephrine transporter>
5.22

>  <Serotonin transporter>
5.22

$$$$
479326
  Marvin  02231216192D 0   1.00000     0.00000     0

 21 23  0  0  0  0  0  0  0  0999 V2000
   -1.1797    2.3981    0.0000 S   0  0  0  0  0  0  0  0  0
   -1.4346    1.6135    0.0000 C   0  0  0  0  0  0  0  0  0
   -2.2596    1.6135    0.0000 C   0  0  0  0  0  0  0  0  0
   -2.5145    2.3981    0.0000 N   0  0  0  0  0  0  0  0  0
   -1.8471    2.8830    0.0000 C   0  0  0  0  0  0  0  0  0
   -1.8471    3.7080    0.0000 C   0  0  0  0  0  0  0  0  0
   -2.7445    0.9460    0.0000 C   0  0  0  0  0  0  0  0  0
   -3.2294    0.2786    0.0000 C   0  0  0  0  0  0  0  0  0
   -3.7144   -0.3889    0.0000 C   0  0  0  0  0  0  0  0  0
   -3.3788   -1.1425    0.0000 C   0  0  0  0  0  0  0  0  0
   -3.8637   -1.8100    0.0000 C   0  0  0  0  0  0  0  0  0
   -3.5282   -2.5636    0.0000 F   0  0  0  0  0  0  0  0  0
   -4.6842   -1.7237    0.0000 C   0  0  0  0  0  0  0  0  0
   -5.0198   -0.9701    0.0000 C   0  0  0  0  0  0  0  0  0
   -4.5348   -0.3026    0.0000 C   0  0  0  0  0  0  0  0  0
   -5.1691   -2.3912    0.0000 C   0  0  0  0  0  0  0  0  0
   -4.8336   -3.1449    0.0000 C   0  0  0  0  0  0  0  0  0
   -5.3185   -3.8123    0.0000 C   0  0  0  0  0  0  0  0  0
   -6.1390   -3.7261    0.0000 C   0  0  0  0  0  0  0  0  0
   -6.4745   -2.9724    0.0000 N   0  0  0  0  0  0  0  0  0
   -5.9896   -2.3049    0.0000 C   0  0  0  0  0  0  0  0  0
  1  2  4  0  0  0  0
  1  5  4  0  0  0  0
  2  3  4  0  0  0  0
  3  4  4  0  0  0  0
  3  7  1  0  0  0  0
  4  5  4  0  0  0  0
  5  6  1  0  0  0  0
  7  8  3  0  0  0  0
  8  9  1  0  0  0  0
  9 10  4  0  0  0  0
  9 15  4  0  0  0  0
 10 11  4  0  0  0  0
 11 12  1  0  0  0  0
 11 13  4  0  0  0  0
 13 14  4  0  0  0  0
 13 16  1  0  0  0  0
 14 15  4  0  0  0  0
 16 17  4  0  0  0  0
 16 21  4  0  0  0  0
 17 18  4  0  0  0  0
 18 19  4  0  0  0  0
 19 20  4  0  0  0  0
 20 21  4  0  0  0  0
M  END
>  <Name_Molregno>
479326

>  <Dopamine transporter>
5.22

>  <Norepinephrine transporter>
5.22

>  <Serotonin transporter>
5.22

$$$$
479418
  Marvin  02231216192D 0   1.00000     0.00000     0

 24 26  0  0  0  0  0  0  0  0999 V2000
   -2.2113   -2.2126    0.0000 O   0  0  0  0  0  0  0  0  0
   -1.4968   -1.8001    0.0000 C   0  0  0  0  0  0  0  0  0
   -0.7824   -2.2126    0.0000 N   0  0  0  0  0  0  0  0  0
   -0.7824   -3.0376    0.0000 C   0  0  0  0  0  0  0  0  0
   -0.0679   -3.4501    0.0000 N   0  0  0  0  0  0  0  0  0
   -0.0679   -4.2751    0.0000 C   0  0  0  0  0  0  0  0  0
   -0.7824   -4.6876    0.0000 C   0  0  0  0  0  0  0  0  0
   -1.4968   -4.2751    0.0000 C   0  0  0  0  0  0  0  0  0
   -1.4968   -3.4501    0.0000 C   0  0  0  0  0  0  0  0  0
    0.6466   -4.6876    0.0000 C   0  0  0  0  0  0  0  0  0
   -1.4968   -0.9751    0.0000 C   0  0  0  0  0  0  0  0  0
   -2.2113   -0.5626    0.0000 C   0  0  0  0  0  0  0  0  0
   -2.2113    0.2624    0.0000 C   0  0  0  0  0  0  0  0  0
   -2.9258    0.6749    0.0000 C   0  0  0  0  0  0  0  0  0
   -3.6403    1.0874    0.0000 N   0  0  0  0  0  0  0  0  0
   -1.4968    0.6749    0.0000 C   0  0  0  0  0  0  0  0  0
   -0.7824    0.2624    0.0000 C   0  0  0  0  0  0  0  0  0
   -0.7824   -0.5626    0.0000 C   0  0  0  0  0  0  0  0  0
   -1.4968    1.4999    0.0000 C   0  0  0  0  0  0  0  0  0
   -2.2113    1.9124    0.0000 C   0  0  0  0  0  0  0  0  0
   -2.2113    2.7374    0.0000 C   0  0  0  0  0  0  0  0  0
   -1.4968    3.1499    0.0000 C   0  0  0  0  0  0  0  0  0
   -0.7824    2.7374    0.0000 C   0  0  0  0  0  0  0  0  0
   -0.7824    1.9124    0.0000 C   0  0  0  0  0  0  0  0  0
  1  2  2  0  0  0  0
  2  3  1  0  0  0  0
  2 11  1  0  0  0  0
  3  4  1  0  0  0  0
  4  5  4  0  0  0  0
  4  9  4  0  0  0  0
  5  6  4  0  0  0  0
  6  7  4  0  0  0  0
  6 10  1  0  0  0  0
  7  8  4  0  0  0  0
  8  9  4  0  0  0  0
 11 12  4  0  0  0  0
 11 18  4  0  0  0  0
 12 13  4  0  0  0  0
 13 14  1  0  0  0  0
 13 16  4  0  0  0  0
 14 15  3  0  0  0  0
 16 17  4  0  0  0  0
 16 19  1  0  0  0  0
 17 18  4  0  0  0  0
 19 20  4  0  0  0  0
 19 24  4  0  0  0  0
 20 21  4  0  0  0  0
 21 22  4  0  0  0  0
 22 23  4  0  0  0  0
 23 24  4  0  0  0  0
M  END
>  <Name_Molregno>
479418

>  <Dopamine transporter>
5.22

>  <Norepinephrine transporter>
5.22

>  <Serotonin transporter>
5.22

$$$$
489207
  Marvin  02231216192D 0   1.00000     0.00000     0

 20 21  0  0  1  0  0  0  0  0999 V2000
   -0.9883   -0.2710    0.0000 Cl  0  0  0  0  0  0  0  0  0
   -0.9883   -1.0960    0.0000 C   0  0  0  0  0  0  0  0  0
   -0.2739   -1.5085    0.0000 C   0  0  0  0  0  0  0  0  0
   -0.2739   -2.3335    0.0000 C   0  0  0  0  0  0  0  0  0
   -0.9883   -2.7460    0.0000 C   0  0  0  0  0  0  0  0  0
   -1.7028   -2.3335    0.0000 C   0  0  0  0  0  0  0  0  0
   -1.7028   -1.5085    0.0000 C   0  0  0  0  0  0  0  0  0
   -2.4173   -1.0960    0.0000 Cl  0  0  0  0  0  0  0  0  0
    0.4406   -1.0960    0.0000 C   0  0  0  0  0  0  0  0  0
    1.1551   -1.5085    0.0000 N   0  0  0  0  0  0  0  0  0
    1.8696   -1.0960    0.0000 C   0  0  0  0  0  0  0  0  0
    1.8696   -0.2710    0.0000 O   0  0  0  0  0  0  0  0  0
    2.5840   -1.5085    0.0000 C   0  0  0  0  0  0  0  0  0
    3.2985   -1.0960    0.0000 C   0  0  0  0  0  0  0  0  0
    2.5840   -2.3335    0.0000 C   0  0  0  0  0  0  0  0  0
    1.1551   -2.3335    0.0000 C   0  0  0  0  0  0  0  0  0
    1.8225   -2.8184    0.0000 C   0  0  0  0  0  0  0  0  0
    1.5676   -3.6030    0.0000 C   0  0  0  0  0  0  0  0  0
    0.7426   -3.6030    0.0000 N   0  0  0  0  0  0  0  0  0
    0.4876   -2.8184    0.0000 C   0  0  0  0  0  0  0  0  0
  1  2  1  0  0  0  0
  2  3  4  0  0  0  0
  2  7  4  0  0  0  0
  3  4  4  0  0  0  0
  3  9  1  0  0  0  0
  4  5  4  0  0  0  0
  5  6  4  0  0  0  0
  6  7  4  0  0  0  0
  7  8  1  0  0  0  0
  9 10  1  0  0  0  0
 10 11  1  0  0  0  0
 10 16  1  0  0  0  0
 11 12  2  0  0  0  0
 11 13  1  0  0  0  0
 13 14  1  0  0  0  0
 13 15  1  0  0  0  0
 16 17  1  0  0  0  0
 16 20  1  0  0  0  0
 17 18  1  0  0  0  0
 18 19  1  0  0  0  0
 19 20  1  0  0  0  0
M  END
>  <Name_Molregno>
489207

>  <Dopamine transporter>
6.19

>  <Norepinephrine transporter>
7.28

>  <Serotonin transporter>
8.05

$$$$
489211
  Marvin  02231216192D 0   1.00000     0.00000     0

 24 26  0  0  1  0  0  0  0  0999 V2000
    0.9228   -3.7233    0.0000 O   0  0  0  0  0  0  0  0  0
    0.9228   -2.8983    0.0000 C   0  0  0  0  0  0  0  0  0
    0.2083   -2.4858    0.0000 N   0  0  0  0  0  0  0  0  0
    0.2083   -1.6608    0.0000 C   0  0  0  0  0  0  0  0  0
   -0.5061   -1.2483    0.0000 C   0  0  0  0  0  0  0  0  0
   -1.2206   -1.6608    0.0000 C   0  0  0  0  0  0  0  0  0
   -1.9351   -1.2483    0.0000 C   0  0  0  0  0  0  0  0  0
   -1.9351   -0.4233    0.0000 C   0  0  0  0  0  0  0  0  0
   -1.2206   -0.0108    0.0000 C   0  0  0  0  0  0  0  0  0
   -0.5061   -0.4233    0.0000 C   0  0  0  0  0  0  0  0  0
    0.2083   -0.0108    0.0000 C   0  0  0  0  0  0  0  0  0
    0.2083    0.8142    0.0000 C   0  0  0  0  0  0  0  0  0
    0.9228    1.2267    0.0000 C   0  0  0  0  0  0  0  0  0
    1.6373    0.8142    0.0000 C   0  0  0  0  0  0  0  0  0
    1.6373   -0.0108    0.0000 C   0  0  0  0  0  0  0  0  0
    0.9228   -0.4233    0.0000 C   0  0  0  0  0  0  0  0  0
   -0.5061   -2.8983    0.0000 C   0  0  0  0  0  0  0  0  0
   -0.5924   -3.7188    0.0000 C   0  0  0  0  0  0  0  0  0
   -1.3993   -3.8904    0.0000 C   0  0  0  0  0  0  0  0  0
   -1.8118   -3.1759    0.0000 N   0  0  0  0  0  0  0  0  0
   -1.2598   -2.5628    0.0000 C   0  0  0  0  0  0  0  0  0
    1.6373   -2.4858    0.0000 C   0  0  0  0  0  0  0  0  0
    1.6373   -1.6608    0.0000 C   0  0  0  0  0  0  0  0  0
    2.3518   -2.8983    0.0000 C   0  0  0  0  0  0  0  0  0
  1  2  2  0  0  0  0
  2  3  1  0  0  0  0
  2 22  1  0  0  0  0
  3  4  1  0  0  0  0
  3 17  1  0  0  0  0
  4  5  1  0  0  0  0
  5  6  4  0  0  0  0
  5 10  4  0  0  0  0
  6  7  4  0  0  0  0
  7  8  4  0  0  0  0
  8  9  4  0  0  0  0
  9 10  4  0  0  0  0
 10 11  1  0  0  0  0
 11 12  4  0  0  0  0
 11 16  4  0  0  0  0
 12 13  4  0  0  0  0
 13 14  4  0  0  0  0
 14 15  4  0  0  0  0
 15 16  4  0  0  0  0
 17 18  1  0  0  0  0
 17 21  1  0  0  0  0
 18 19  1  0  0  0  0
 19 20  1  0  0  0  0
 20 21  1  0  0  0  0
 22 23  1  0  0  0  0
 22 24  1  0  0  0  0
M  END
>  <Name_Molregno>
489211

>  <Dopamine transporter>
5.43

>  <Norepinephrine transporter>
8.22

>  <Serotonin transporter>
6.02

$$$$
489345
  Marvin  02231216192D 0   1.00000     0.00000     0

 32 36  0  0  0  0  0  0  0  0999 V2000
    2.5819    4.2960    0.0000 F   0  0  0  0  0  0  0  0  0
    2.8368    3.5113    0.0000 C   0  0  0  0  0  0  0  0  0
    3.6438    3.3398    0.0000 C   0  0  0  0  0  0  0  0  0
    3.8987    2.5552    0.0000 C   0  0  0  0  0  0  0  0  0
    4.7057    2.3837    0.0000 O   0  0  0  0  0  0  0  0  0
    4.9606    1.5990    0.0000 C   0  0  0  0  0  0  0  0  0
    5.7676    1.4275    0.0000 C   0  0  0  0  0  0  0  0  0
    6.0226    0.6429    0.0000 C   0  0  0  0  0  0  0  0  0
    6.8295    0.4714    0.0000 C   0  0  0  0  0  0  0  0  0
    7.0845   -0.3133    0.0000 C   0  0  0  0  0  0  0  0  0
    6.5324   -0.9264    0.0000 N   0  0  0  0  0  0  0  0  0
    5.7255   -0.7548    0.0000 C   0  0  0  0  0  0  0  0  0
    5.4705    0.0298    0.0000 C   0  0  0  0  0  0  0  0  0
    4.6635    0.2013    0.0000 C   0  0  0  0  0  0  0  0  0
    4.4086    0.9859    0.0000 C   0  0  0  0  0  0  0  0  0
    6.7874   -1.7110    0.0000 C   0  0  0  0  0  0  0  0  0
    7.5943   -1.8825    0.0000 C   0  0  0  0  0  0  0  0  0
    7.8493   -2.6671    0.0000 C   0  0  0  0  0  0  0  0  0
    7.2972   -3.2802    0.0000 C   0  0  0  0  0  0  0  0  0
    6.4903   -3.1087    0.0000 C   0  0  0  0  0  0  0  0  0
    6.2353   -2.3241    0.0000 C   0  0  0  0  0  0  0  0  0
    7.5522   -4.0648    0.0000 C   0  0  0  0  0  0  0  0  0
    8.3368   -4.3198    0.0000 C   0  0  0  0  0  0  0  0  0
    9.0513   -3.9073    0.0000 C   0  0  0  0  0  0  0  0  0
    9.7657   -4.3198    0.0000 C   0  0  0  0  0  0  0  0  0
    9.7657   -5.1448    0.0000 C   0  0  0  0  0  0  0  0  0
    9.0513   -5.5573    0.0000 C   0  0  0  0  0  0  0  0  0
    8.3368   -5.1448    0.0000 C   0  0  0  0  0  0  0  0  0
    7.5522   -5.3997    0.0000 N   0  0  0  0  0  0  0  0  0
    7.0673   -4.7323    0.0000 C   0  0  0  0  0  0  0  0  0
   10.4802   -3.9073    0.0000 C   0  0  0  0  0  0  0  0  0
   11.1947   -3.4948    0.0000 N   0  0  0  0  0  0  0  0  0
  1  2  1  0  0  0  0
  2  3  1  0  0  0  0
  3  4  1  0  0  0  0
  4  5  1  0  0  0  0
  5  6  1  0  0  0  0
  6  7  4  0  0  0  0
  6 15  4  0  0  0  0
  7  8  4  0  0  0  0
  8  9  1  0  0  0  0
  8 13  4  0  0  0  0
  9 10  1  0  0  0  0
 10 11  1  0  0  0  0
 11 12  1  0  0  0  0
 11 16  1  0  0  0  0
 12 13  1  0  0  0  0
 13 14  4  0  0  0  0
 14 15  4  0  0  0  0
 16 17  1  0  0  0  0
 16 21  1  0  0  0  0
 17 18  1  0  0  0  0
 18 19  1  0  0  0  0
 19 20  1  0  0  0  0
 19 22  1  0  0  0  0
 20 21  1  0  0  0  0
 22 23  4  0  0  0  0
 22 30  4  0  0  0  0
 23 24  4  0  0  0  0
 23 28  4  0  0  0  0
 24 25  4  0  0  0  0
 25 26  4  0  0  0  0
 25 31  1  0  0  0  0
 26 27  4  0  0  0  0
 27 28  4  0  0  0  0
 28 29  4  0  0  0  0
 29 30  4  0  0  0  0
 31 32  3  0  0  0  0
M  STY  1   1 DAT
M  SAL   1  1  29
M  SDT   1 MRV_IMPLICIT_H                                        
M  SDD   1     0.0000    0.0000    DR    ALL  0       0  
M  SED   1 IMPL_H1
M  END
>  <Name_Molregno>
489345

>  <Dopamine transporter>
6.45

>  <Norepinephrine transporter>
6.55

>  <Serotonin transporter>
6.59

$$$$
489527
  Marvin  02231216192D 0   1.00000     0.00000     0

 24 26  0  0  1  0  0  0  0  0999 V2000
    2.0794   -1.9387    0.0000 O   0  0  0  0  0  0  0  0  0
    2.0794   -1.1137    0.0000 C   0  0  0  0  0  0  0  0  0
    1.3650   -0.7012    0.0000 N   0  0  0  0  0  0  0  0  0
    0.6505   -1.1137    0.0000 C   0  0  0  0  0  0  0  0  0
    0.6505   -1.9387    0.0000 C   0  0  0  0  0  0  0  0  0
    1.3650   -2.3512    0.0000 C   0  0  0  0  0  0  0  0  0
    1.3650   -3.1762    0.0000 C   0  0  0  0  0  0  0  0  0
    0.6505   -3.5887    0.0000 C   0  0  0  0  0  0  0  0  0
   -0.0640   -3.1762    0.0000 C   0  0  0  0  0  0  0  0  0
   -0.0640   -2.3512    0.0000 C   0  0  0  0  0  0  0  0  0
   -0.7785   -1.9387    0.0000 C   0  0  0  0  0  0  0  0  0
   -1.4929   -2.3512    0.0000 C   0  0  0  0  0  0  0  0  0
   -2.2074   -1.9387    0.0000 C   0  0  0  0  0  0  0  0  0
   -2.2074   -1.1137    0.0000 C   0  0  0  0  0  0  0  0  0
   -1.4929   -0.7012    0.0000 C   0  0  0  0  0  0  0  0  0
   -0.7785   -1.1137    0.0000 C   0  0  0  0  0  0  0  0  0
    1.3650    0.1238    0.0000 C   0  0  0  0  0  0  0  0  0
    0.6975    0.6087    0.0000 C   0  0  0  0  0  0  0  0  0
    0.9525    1.3934    0.0000 C   0  0  0  0  0  0  0  0  0
    1.7775    1.3934    0.0000 N   0  0  0  0  0  0  0  0  0
    2.0324    0.6087    0.0000 C   0  0  0  0  0  0  0  0  0
    2.7939   -0.7012    0.0000 C   0  0  0  0  0  0  0  0  0
    3.5084   -1.1137    0.0000 C   0  0  0  0  0  0  0  0  0
    3.5084   -1.9387    0.0000 C   0  0  0  0  0  0  0  0  0
  1  2  2  0  0  0  0
  2  3  1  0  0  0  0
  2 22  1  0  0  0  0
  3  4  1  0  0  0  0
  3 17  1  0  0  0  0
  4  5  1  0  0  0  0
  5  6  4  0  0  0  0
  5 10  4  0  0  0  0
  6  7  4  0  0  0  0
  7  8  4  0  0  0  0
  8  9  4  0  0  0  0
  9 10  4  0  0  0  0
 10 11  1  0  0  0  0
 11 12  4  0  0  0  0
 11 16  4  0  0  0  0
 12 13  4  0  0  0  0
 13 14  4  0  0  0  0
 14 15  4  0  0  0  0
 15 16  4  0  0  0  0
 17 18  1  0  0  0  0
 17 21  1  0  0  0  0
 18 19  1  0  0  0  0
 19 20  1  0  0  0  0
 20 21  1  0  0  0  0
 22 23  1  0  0  0  0
 23 24  1  0  0  0  0
M  END
>  <Name_Molregno>
489527

>  <Dopamine transporter>
5.58

>  <Norepinephrine transporter>
7.6

>  <Serotonin transporter>
6.14

$$$$
489529
  Marvin  02231216192D 0   1.00000     0.00000     0

 25 27  0  0  1  0  0  0  0  0999 V2000
    2.3735   -1.3775    0.0000 O   0  0  0  0  0  0  0  0  0
    2.3735   -0.5525    0.0000 C   0  0  0  0  0  0  0  0  0
    1.6591   -0.1400    0.0000 N   0  0  0  0  0  0  0  0  0
    0.9446   -0.5525    0.0000 C   0  0  0  0  0  0  0  0  0
    0.9446   -1.3775    0.0000 C   0  0  0  0  0  0  0  0  0
    1.6591   -1.7900    0.0000 C   0  0  0  0  0  0  0  0  0
    1.6591   -2.6150    0.0000 C   0  0  0  0  0  0  0  0  0
    0.9446   -3.0275    0.0000 C   0  0  0  0  0  0  0  0  0
    0.2301   -2.6150    0.0000 C   0  0  0  0  0  0  0  0  0
    0.2301   -1.7900    0.0000 C   0  0  0  0  0  0  0  0  0
   -0.4843   -1.3775    0.0000 C   0  0  0  0  0  0  0  0  0
   -1.1988   -1.7900    0.0000 C   0  0  0  0  0  0  0  0  0
   -1.9133   -1.3775    0.0000 C   0  0  0  0  0  0  0  0  0
   -1.9133   -0.5525    0.0000 C   0  0  0  0  0  0  0  0  0
   -1.1988   -0.1400    0.0000 C   0  0  0  0  0  0  0  0  0
   -0.4843   -0.5525    0.0000 C   0  0  0  0  0  0  0  0  0
    1.6591    0.6850    0.0000 C   0  0  0  0  0  0  0  0  0
    0.9916    1.1700    0.0000 C   0  0  0  0  0  0  0  0  0
    1.2466    1.9546    0.0000 C   0  0  0  0  0  0  0  0  0
    2.0716    1.9546    0.0000 N   0  0  0  0  0  0  0  0  0
    2.3265    1.1700    0.0000 C   0  0  0  0  0  0  0  0  0
    3.0880   -0.1400    0.0000 C   0  0  0  0  0  0  0  0  0
    3.8025   -0.5525    0.0000 C   0  0  0  0  0  0  0  0  0
    4.5170   -0.1400    0.0000 C   0  0  0  0  0  0  0  0  0
    3.8025   -1.3775    0.0000 C   0  0  0  0  0  0  0  0  0
  1  2  2  0  0  0  0
  2  3  1  0  0  0  0
  2 22  1  0  0  0  0
  3  4  1  0  0  0  0
  3 17  1  0  0  0  0
  4  5  1  0  0  0  0
  5  6  4  0  0  0  0
  5 10  4  0  0  0  0
  6  7  4  0  0  0  0
  7  8  4  0  0  0  0
  8  9  4  0  0  0  0
  9 10  4  0  0  0  0
 10 11  1  0  0  0  0
 11 12  4  0  0  0  0
 11 16  4  0  0  0  0
 12 13  4  0  0  0  0
 13 14  4  0  0  0  0
 14 15  4  0  0  0  0
 15 16  4  0  0  0  0
 17 18  1  0  0  0  0
 17 21  1  0  0  0  0
 18 19  1  0  0  0  0
 19 20  1  0  0  0  0
 20 21  1  0  0  0  0
 22 23  1  0  0  0  0
 23 24  1  0  0  0  0
 23 25  1  0  0  0  0
M  END
>  <Name_Molregno>
489529

>  <Norepinephrine transporter>
7.52

>  <Serotonin transporter>
6.38

$$$$
489530
  Marvin  02231216192D 0   1.00000     0.00000     0

 21 22  0  0  1  0  0  0  0  0999 V2000
    3.2182   -1.8923    0.0000 O   0  0  0  0  0  0  0  0  0
    3.2182   -1.0673    0.0000 C   0  0  0  0  0  0  0  0  0
    2.5038   -0.6548    0.0000 N   0  0  0  0  0  0  0  0  0
    2.5038    0.1702    0.0000 C   0  0  0  0  0  0  0  0  0
    1.7893    0.5827    0.0000 C   0  0  0  0  0  0  0  0  0
    1.0748    0.1702    0.0000 C   0  0  0  0  0  0  0  0  0
    0.3603    0.5827    0.0000 C   0  0  0  0  0  0  0  0  0
    0.3603    1.4077    0.0000 C   0  0  0  0  0  0  0  0  0
    1.0748    1.8202    0.0000 C   0  0  0  0  0  0  0  0  0
    1.7893    1.4077    0.0000 C   0  0  0  0  0  0  0  0  0
    2.5038    1.8202    0.0000 C   0  0  0  0  0  0  0  0  0
    2.5038    2.6452    0.0000 C   0  0  0  0  0  0  0  0  0
    3.2182    1.4077    0.0000 C   0  0  0  0  0  0  0  0  0
    1.7893   -1.0673    0.0000 C   0  0  0  0  0  0  0  0  0
    1.7030   -1.8878    0.0000 C   0  0  0  0  0  0  0  0  0
    0.8961   -2.0593    0.0000 C   0  0  0  0  0  0  0  0  0
    0.4836   -1.3449    0.0000 N   0  0  0  0  0  0  0  0  0
    1.0356   -0.7318    0.0000 C   0  0  0  0  0  0  0  0  0
    3.9327   -0.6548    0.0000 C   0  0  0  0  0  0  0  0  0
    3.9327    0.1702    0.0000 C   0  0  0  0  0  0  0  0  0
    4.6472   -1.0673    0.0000 C   0  0  0  0  0  0  0  0  0
  1  2  2  0  0  0  0
  2  3  1  0  0  0  0
  2 19  1  0  0  0  0
  3  4  1  0  0  0  0
  3 14  1  0  0  0  0
  4  5  1  0  0  0  0
  5  6  4  0  0  0  0
  5 10  4  0  0  0  0
  6  7  4  0  0  0  0
  7  8  4  0  0  0  0
  8  9  4  0  0  0  0
  9 10  4  0  0  0  0
 10 11  1  0  0  0  0
 11 12  1  0  0  0  0
 11 13  1  0  0  0  0
 14 15  1  0  0  0  0
 14 18  1  0  0  0  0
 15 16  1  0  0  0  0
 16 17  1  0  0  0  0
 17 18  1  0  0  0  0
 19 20  1  0  0  0  0
 19 21  1  0  0  0  0
M  END
>  <Name_Molregno>
489530

>  <Dopamine transporter>
5.47

>  <Norepinephrine transporter>
7.15

>  <Serotonin transporter>
6.26

$$$$
489531
  Marvin  02231216192D 0   1.00000     0.00000     0

 21 23  0  0  1  0  0  0  0  0999 V2000
    3.1933   -1.8811    0.0000 O   0  0  0  0  0  0  0  0  0
    3.1933   -1.0561    0.0000 C   0  0  0  0  0  0  0  0  0
    2.4789   -0.6436    0.0000 N   0  0  0  0  0  0  0  0  0
    2.4789    0.1814    0.0000 C   0  0  0  0  0  0  0  0  0
    1.7644    0.5939    0.0000 C   0  0  0  0  0  0  0  0  0
    1.0499    0.1814    0.0000 C   0  0  0  0  0  0  0  0  0
    0.3355    0.5939    0.0000 C   0  0  0  0  0  0  0  0  0
    0.3355    1.4189    0.0000 C   0  0  0  0  0  0  0  0  0
    1.0499    1.8314    0.0000 C   0  0  0  0  0  0  0  0  0
    1.7644    1.4189    0.0000 C   0  0  0  0  0  0  0  0  0
    2.4789    1.8314    0.0000 C   0  0  0  0  0  0  0  0  0
    2.8914    2.5459    0.0000 C   0  0  0  0  0  0  0  0  0
    3.3039    1.8314    0.0000 C   0  0  0  0  0  0  0  0  0
    1.7644   -1.0561    0.0000 C   0  0  0  0  0  0  0  0  0
    1.6782   -1.8766    0.0000 C   0  0  0  0  0  0  0  0  0
    0.8712   -2.0481    0.0000 C   0  0  0  0  0  0  0  0  0
    0.4587   -1.3337    0.0000 N   0  0  0  0  0  0  0  0  0
    1.0107   -0.7206    0.0000 C   0  0  0  0  0  0  0  0  0
    3.9078   -0.6436    0.0000 C   0  0  0  0  0  0  0  0  0
    3.9078    0.1814    0.0000 C   0  0  0  0  0  0  0  0  0
    4.6223   -1.0561    0.0000 C   0  0  0  0  0  0  0  0  0
  1  2  2  0  0  0  0
  2  3  1  0  0  0  0
  2 19  1  0  0  0  0
  3  4  1  0  0  0  0
  3 14  1  0  0  0  0
  4  5  1  0  0  0  0
  5  6  4  0  0  0  0
  5 10  4  0  0  0  0
  6  7  4  0  0  0  0
  7  8  4  0  0  0  0
  8  9  4  0  0  0  0
  9 10  4  0  0  0  0
 10 11  1  0  0  0  0
 11 12  1  0  0  0  0
 11 13  1  0  0  0  0
 12 13  1  0  0  0  0
 14 15  1  0  0  0  0
 14 18  1  0  0  0  0
 15 16  1  0  0  0  0
 16 17  1  0  0  0  0
 17 18  1  0  0  0  0
 19 20  1  0  0  0  0
 19 21  1  0  0  0  0
M  END
>  <Name_Molregno>
489531

>  <Dopamine transporter>
5.53

>  <Norepinephrine transporter>
7.13

>  <Serotonin transporter>
6.91

$$$$
489533
  Marvin  02231216192D 0   1.00000     0.00000     0

 26 29  0  0  1  0  0  0  0  0999 V2000
    2.3817    0.3163    0.0000 O   0  0  0  0  0  0  0  0  0
    2.3817   -0.5087    0.0000 C   0  0  0  0  0  0  0  0  0
    1.6672   -0.9212    0.0000 N   0  0  0  0  0  0  0  0  0
    0.9528   -0.5087    0.0000 C   0  0  0  0  0  0  0  0  0
    0.2383   -0.9212    0.0000 C   0  0  0  0  0  0  0  0  0
    0.2383   -1.7462    0.0000 C   0  0  0  0  0  0  0  0  0
   -0.4762   -2.1587    0.0000 C   0  0  0  0  0  0  0  0  0
   -1.1906   -1.7462    0.0000 C   0  0  0  0  0  0  0  0  0
   -1.1906   -0.9212    0.0000 C   0  0  0  0  0  0  0  0  0
   -0.4762   -0.5087    0.0000 C   0  0  0  0  0  0  0  0  0
   -0.4762    0.3163    0.0000 C   0  0  0  0  0  0  0  0  0
   -1.1906    0.7288    0.0000 C   0  0  0  0  0  0  0  0  0
   -1.1906    1.5538    0.0000 C   0  0  0  0  0  0  0  0  0
   -0.4762    1.9663    0.0000 C   0  0  0  0  0  0  0  0  0
    0.2383    1.5538    0.0000 C   0  0  0  0  0  0  0  0  0
    0.2383    0.7288    0.0000 C   0  0  0  0  0  0  0  0  0
    1.6672   -1.7462    0.0000 C   0  0  0  0  0  0  0  0  0
    2.3347   -2.2312    0.0000 C   0  0  0  0  0  0  0  0  0
    2.0797   -3.0158    0.0000 C   0  0  0  0  0  0  0  0  0
    1.2547   -3.0158    0.0000 N   0  0  0  0  0  0  0  0  0
    0.9998   -2.2312    0.0000 C   0  0  0  0  0  0  0  0  0
    3.0962   -0.9212    0.0000 N   0  0  0  0  0  0  0  0  0
    3.8499   -0.5857    0.0000 C   0  0  0  0  0  0  0  0  0
    4.4019   -1.1988    0.0000 C   0  0  0  0  0  0  0  0  0
    3.9894   -1.9133    0.0000 C   0  0  0  0  0  0  0  0  0
    3.1824   -1.7417    0.0000 C   0  0  0  0  0  0  0  0  0
  1  2  2  0  0  0  0
  2  3  1  0  0  0  0
  2 22  1  0  0  0  0
  3  4  1  0  0  0  0
  3 17  1  0  0  0  0
  4  5  1  0  0  0  0
  5  6  4  0  0  0  0
  5 10  4  0  0  0  0
  6  7  4  0  0  0  0
  7  8  4  0  0  0  0
  8  9  4  0  0  0  0
  9 10  4  0  0  0  0
 10 11  1  0  0  0  0
 11 12  4  0  0  0  0
 11 16  4  0  0  0  0
 12 13  4  0  0  0  0
 13 14  4  0  0  0  0
 14 15  4  0  0  0  0
 15 16  4  0  0  0  0
 17 18  1  0  0  0  0
 17 21  1  0  0  0  0
 18 19  1  0  0  0  0
 19 20  1  0  0  0  0
 20 21  1  0  0  0  0
 22 23  1  0  0  0  0
 22 26  1  0  0  0  0
 23 24  1  0  0  0  0
 24 25  1  0  0  0  0
 25 26  1  0  0  0  0
M  END
>  <Name_Molregno>
489533

>  <Dopamine transporter>
5.38

>  <Norepinephrine transporter>
7.57

$$$$
489534
  Marvin  02231216192D 0   1.00000     0.00000     0

 23 25  0  0  1  0  0  0  0  0999 V2000
    3.0564   -0.7901    0.0000 S   0  0  0  0  0  0  0  0  0
    3.4689   -1.5046    0.0000 O   0  0  0  0  0  0  0  0  0
    2.6439   -0.0756    0.0000 O   0  0  0  0  0  0  0  0  0
    2.3420   -1.2026    0.0000 N   0  0  0  0  0  0  0  0  0
    1.6275   -0.7901    0.0000 C   0  0  0  0  0  0  0  0  0
    0.9130   -1.2026    0.0000 C   0  0  0  0  0  0  0  0  0
    0.9130   -2.0276    0.0000 C   0  0  0  0  0  0  0  0  0
    0.1985   -2.4401    0.0000 C   0  0  0  0  0  0  0  0  0
   -0.5159   -2.0276    0.0000 C   0  0  0  0  0  0  0  0  0
   -0.5159   -1.2026    0.0000 C   0  0  0  0  0  0  0  0  0
    0.1985   -0.7901    0.0000 C   0  0  0  0  0  0  0  0  0
    0.1985    0.0349    0.0000 C   0  0  0  0  0  0  0  0  0
   -0.5159    0.4474    0.0000 C   0  0  0  0  0  0  0  0  0
   -0.5159    1.2724    0.0000 C   0  0  0  0  0  0  0  0  0
    0.1985    1.6849    0.0000 C   0  0  0  0  0  0  0  0  0
    0.9130    1.2724    0.0000 C   0  0  0  0  0  0  0  0  0
    0.9130    0.4474    0.0000 C   0  0  0  0  0  0  0  0  0
    2.3420   -2.0276    0.0000 C   0  0  0  0  0  0  0  0  0
    3.0094   -2.5125    0.0000 C   0  0  0  0  0  0  0  0  0
    2.7545   -3.2972    0.0000 C   0  0  0  0  0  0  0  0  0
    1.9295   -3.2972    0.0000 N   0  0  0  0  0  0  0  0  0
    1.6745   -2.5125    0.0000 C   0  0  0  0  0  0  0  0  0
    3.7709   -0.3776    0.0000 C   0  0  0  0  0  0  0  0  0
  1  2  2  0  0  0  0
  1  3  2  0  0  0  0
  1  4  1  0  0  0  0
  1 23  1  0  0  0  0
  4  5  1  0  0  0  0
  4 18  1  0  0  0  0
  5  6  1  0  0  0  0
  6  7  4  0  0  0  0
  6 11  4  0  0  0  0
  7  8  4  0  0  0  0
  8  9  4  0  0  0  0
  9 10  4  0  0  0  0
 10 11  4  0  0  0  0
 11 12  1  0  0  0  0
 12 13  4  0  0  0  0
 12 17  4  0  0  0  0
 13 14  4  0  0  0  0
 14 15  4  0  0  0  0
 15 16  4  0  0  0  0
 16 17  4  0  0  0  0
 18 19  1  0  0  0  0
 18 22  1  0  0  0  0
 19 20  1  0  0  0  0
 20 21  1  0  0  0  0
 21 22  1  0  0  0  0
M  END
>  <Name_Molregno>
489534

>  <Dopamine transporter>
5.6

>  <Norepinephrine transporter>
7.92

>  <Serotonin transporter>
5.33

$$$$
489535
  Marvin  02231216192D 0   1.00000     0.00000     0

 24 26  0  0  1  0  0  0  0  0999 V2000
    2.7054   -1.5456    0.0000 S   0  0  0  0  0  0  0  0  0
    2.7054   -0.7206    0.0000 O   0  0  0  0  0  0  0  0  0
    2.7054   -2.3706    0.0000 O   0  0  0  0  0  0  0  0  0
    1.8804   -1.5456    0.0000 N   0  0  0  0  0  0  0  0  0
    1.4679   -0.8311    0.0000 C   0  0  0  0  0  0  0  0  0
    0.6429   -0.8311    0.0000 C   0  0  0  0  0  0  0  0  0
    0.2304   -1.5456    0.0000 C   0  0  0  0  0  0  0  0  0
   -0.5946   -1.5456    0.0000 C   0  0  0  0  0  0  0  0  0
   -1.0071   -0.8311    0.0000 C   0  0  0  0  0  0  0  0  0
   -0.5946   -0.1166    0.0000 C   0  0  0  0  0  0  0  0  0
    0.2304   -0.1166    0.0000 C   0  0  0  0  0  0  0  0  0
    0.6429    0.5978    0.0000 C   0  0  0  0  0  0  0  0  0
    0.2304    1.3123    0.0000 C   0  0  0  0  0  0  0  0  0
    0.6429    2.0268    0.0000 C   0  0  0  0  0  0  0  0  0
    1.4679    2.0268    0.0000 C   0  0  0  0  0  0  0  0  0
    1.8804    1.3123    0.0000 C   0  0  0  0  0  0  0  0  0
    1.4679    0.5978    0.0000 C   0  0  0  0  0  0  0  0  0
    1.4679   -2.2600    0.0000 C   0  0  0  0  0  0  0  0  0
    1.8034   -3.0137    0.0000 C   0  0  0  0  0  0  0  0  0
    1.1903   -3.5657    0.0000 C   0  0  0  0  0  0  0  0  0
    0.4759   -3.1532    0.0000 N   0  0  0  0  0  0  0  0  0
    0.6474   -2.3463    0.0000 C   0  0  0  0  0  0  0  0  0
    3.5304   -1.5456    0.0000 C   0  0  0  0  0  0  0  0  0
    3.9429   -2.2600    0.0000 C   0  0  0  0  0  0  0  0  0
  1  2  2  0  0  0  0
  1  3  2  0  0  0  0
  1  4  1  0  0  0  0
  1 23  1  0  0  0  0
  4  5  1  0  0  0  0
  4 18  1  0  0  0  0
  5  6  1  0  0  0  0
  6  7  4  0  0  0  0
  6 11  4  0  0  0  0
  7  8  4  0  0  0  0
  8  9  4  0  0  0  0
  9 10  4  0  0  0  0
 10 11  4  0  0  0  0
 11 12  1  0  0  0  0
 12 13  4  0  0  0  0
 12 17  4  0  0  0  0
 13 14  4  0  0  0  0
 14 15  4  0  0  0  0
 15 16  4  0  0  0  0
 16 17  4  0  0  0  0
 18 19  1  0  0  0  0
 18 22  1  0  0  0  0
 19 20  1  0  0  0  0
 20 21  1  0  0  0  0
 21 22  1  0  0  0  0
 23 24  1  0  0  0  0
M  END
>  <Name_Molregno>
489535

>  <Dopamine transporter>
5.56

>  <Norepinephrine transporter>
8.3

>  <Serotonin transporter>
5.25

$$$$
489536
  Marvin  02231216192D 0   1.00000     0.00000     0

 25 27  0  0  1  0  0  0  0  0999 V2000
    0.3083    1.0158    0.0000 S   0  0  0  0  0  0  0  0  0
    0.7208    0.3014    0.0000 O   0  0  0  0  0  0  0  0  0
   -0.1042    1.7303    0.0000 O   0  0  0  0  0  0  0  0  0
   -0.4062    0.6033    0.0000 N   0  0  0  0  0  0  0  0  0
   -1.1206    1.0158    0.0000 C   0  0  0  0  0  0  0  0  0
   -1.8351    0.6033    0.0000 C   0  0  0  0  0  0  0  0  0
   -1.8351   -0.2217    0.0000 C   0  0  0  0  0  0  0  0  0
   -2.5496   -0.6342    0.0000 C   0  0  0  0  0  0  0  0  0
   -3.2641   -0.2217    0.0000 C   0  0  0  0  0  0  0  0  0
   -3.2641    0.6033    0.0000 C   0  0  0  0  0  0  0  0  0
   -2.5496    1.0158    0.0000 C   0  0  0  0  0  0  0  0  0
   -2.5496    1.8408    0.0000 C   0  0  0  0  0  0  0  0  0
   -3.2641    2.2533    0.0000 C   0  0  0  0  0  0  0  0  0
   -3.2641    3.0783    0.0000 C   0  0  0  0  0  0  0  0  0
   -2.5496    3.4908    0.0000 C   0  0  0  0  0  0  0  0  0
   -1.8351    3.0783    0.0000 C   0  0  0  0  0  0  0  0  0
   -1.8351    2.2533    0.0000 C   0  0  0  0  0  0  0  0  0
   -0.4062   -0.2217    0.0000 C   0  0  0  0  0  0  0  0  0
    0.2613   -0.7066    0.0000 C   0  0  0  0  0  0  0  0  0
    0.0063   -1.4912    0.0000 C   0  0  0  0  0  0  0  0  0
   -0.8187   -1.4912    0.0000 N   0  0  0  0  0  0  0  0  0
   -1.0736   -0.7066    0.0000 C   0  0  0  0  0  0  0  0  0
    1.0228    1.4283    0.0000 C   0  0  0  0  0  0  0  0  0
    1.7372    1.0158    0.0000 C   0  0  0  0  0  0  0  0  0
    2.4517    1.4283    0.0000 C   0  0  0  0  0  0  0  0  0
  1  2  2  0  0  0  0
  1  3  2  0  0  0  0
  1  4  1  0  0  0  0
  1 23  1  0  0  0  0
  4  5  1  0  0  0  0
  4 18  1  0  0  0  0
  5  6  1  0  0  0  0
  6  7  4  0  0  0  0
  6 11  4  0  0  0  0
  7  8  4  0  0  0  0
  8  9  4  0  0  0  0
  9 10  4  0  0  0  0
 10 11  4  0  0  0  0
 11 12  1  0  0  0  0
 12 13  4  0  0  0  0
 12 17  4  0  0  0  0
 13 14  4  0  0  0  0
 14 15  4  0  0  0  0
 15 16  4  0  0  0  0
 16 17  4  0  0  0  0
 18 19  1  0  0  0  0
 18 22  1  0  0  0  0
 19 20  1  0  0  0  0
 20 21  1  0  0  0  0
 21 22  1  0  0  0  0
 23 24  1  0  0  0  0
 24 25  1  0  0  0  0
M  END
>  <Name_Molregno>
489536

>  <Dopamine transporter>
5.68

>  <Norepinephrine transporter>
8.15

>  <Serotonin transporter>
5.25

$$$$
489538
  Marvin  02231216192D 0   1.00000     0.00000     0

 24 26  0  0  1  0  0  0  0  0999 V2000
   -0.2433    1.0997    0.0000 S   0  0  0  0  0  0  0  0  0
    0.1692    1.8142    0.0000 O   0  0  0  0  0  0  0  0  0
   -0.6558    0.3852    0.0000 O   0  0  0  0  0  0  0  0  0
    0.4712    0.6872    0.0000 N   0  0  0  0  0  0  0  0  0
    1.1857    1.0997    0.0000 C   0  0  0  0  0  0  0  0  0
    1.1857    1.9247    0.0000 C   0  0  0  0  0  0  0  0  0
    0.4712    2.3372    0.0000 C   0  0  0  0  0  0  0  0  0
    0.4712    3.1622    0.0000 C   0  0  0  0  0  0  0  0  0
    1.1857    3.5747    0.0000 C   0  0  0  0  0  0  0  0  0
    1.9002    3.1622    0.0000 C   0  0  0  0  0  0  0  0  0
    1.9002    2.3372    0.0000 C   0  0  0  0  0  0  0  0  0
    2.6146    1.9247    0.0000 C   0  0  0  0  0  0  0  0  0
    3.3291    2.3372    0.0000 C   0  0  0  0  0  0  0  0  0
    4.0436    1.9247    0.0000 C   0  0  0  0  0  0  0  0  0
    4.0436    1.0997    0.0000 C   0  0  0  0  0  0  0  0  0
    3.3291    0.6872    0.0000 C   0  0  0  0  0  0  0  0  0
    2.6146    1.0997    0.0000 C   0  0  0  0  0  0  0  0  0
    0.4712   -0.1378    0.0000 C   0  0  0  0  0  0  0  0  0
    1.1387   -0.6227    0.0000 C   0  0  0  0  0  0  0  0  0
    0.8837   -1.4074    0.0000 C   0  0  0  0  0  0  0  0  0
    0.0587   -1.4074    0.0000 N   0  0  0  0  0  0  0  0  0
   -0.1962   -0.6227    0.0000 C   0  0  0  0  0  0  0  0  0
   -0.4262   -2.0748    0.0000 C   0  0  0  0  0  0  0  0  0
   -0.9577    1.5122    0.0000 C   0  0  0  0  0  0  0  0  0
  1  2  2  0  0  0  0
  1  3  2  0  0  0  0
  1  4  1  0  0  0  0
  1 24  1  0  0  0  0
  4  5  1  0  0  0  0
  4 18  1  0  0  0  0
  5  6  1  0  0  0  0
  6  7  4  0  0  0  0
  6 11  4  0  0  0  0
  7  8  4  0  0  0  0
  8  9  4  0  0  0  0
  9 10  4  0  0  0  0
 10 11  4  0  0  0  0
 11 12  1  0  0  0  0
 12 13  4  0  0  0  0
 12 17  4  0  0  0  0
 13 14  4  0  0  0  0
 14 15  4  0  0  0  0
 15 16  4  0  0  0  0
 16 17  4  0  0  0  0
 18 19  1  0  0  0  0
 18 22  1  0  0  0  0
 19 20  1  0  0  0  0
 20 21  1  0  0  0  0
 21 22  1  0  0  0  0
 21 23  1  0  0  0  0
M  END
>  <Name_Molregno>
489538

>  <Norepinephrine transporter>
6.13

>  <Serotonin transporter>
5

$$$$
489539
  Marvin  02231216192D 0   1.00000     0.00000     0

 25 27  0  0  1  0  0  0  0  0999 V2000
    2.2803    1.7134    0.0000 S   0  0  0  0  0  0  0  0  0
    2.2803    2.5384    0.0000 O   0  0  0  0  0  0  0  0  0
    2.2803    0.8884    0.0000 O   0  0  0  0  0  0  0  0  0
    1.4553    1.7134    0.0000 N   0  0  0  0  0  0  0  0  0
    1.0428    0.9989    0.0000 C   0  0  0  0  0  0  0  0  0
    1.4553    0.2845    0.0000 C   0  0  0  0  0  0  0  0  0
    2.2803    0.2845    0.0000 C   0  0  0  0  0  0  0  0  0
    2.6928   -0.4300    0.0000 C   0  0  0  0  0  0  0  0  0
    2.2803   -1.1445    0.0000 C   0  0  0  0  0  0  0  0  0
    1.4553   -1.1445    0.0000 C   0  0  0  0  0  0  0  0  0
    1.0428   -0.4300    0.0000 C   0  0  0  0  0  0  0  0  0
    0.2178   -0.4300    0.0000 C   0  0  0  0  0  0  0  0  0
   -0.1947   -1.1445    0.0000 C   0  0  0  0  0  0  0  0  0
   -1.0197   -1.1445    0.0000 C   0  0  0  0  0  0  0  0  0
   -1.4322   -0.4300    0.0000 C   0  0  0  0  0  0  0  0  0
   -1.0197    0.2845    0.0000 C   0  0  0  0  0  0  0  0  0
   -0.1947    0.2845    0.0000 C   0  0  0  0  0  0  0  0  0
    1.0428    2.4279    0.0000 C   0  0  0  0  0  0  0  0  0
    0.2223    2.5141    0.0000 C   0  0  0  0  0  0  0  0  0
    0.0508    3.3211    0.0000 C   0  0  0  0  0  0  0  0  0
    0.7653    3.7336    0.0000 N   0  0  0  0  0  0  0  0  0
    1.3784    3.1815    0.0000 C   0  0  0  0  0  0  0  0  0
    0.8515    4.5541    0.0000 C   0  0  0  0  0  0  0  0  0
    3.1053    1.7134    0.0000 C   0  0  0  0  0  0  0  0  0
    3.5178    0.9989    0.0000 C   0  0  0  0  0  0  0  0  0
  1  2  2  0  0  0  0
  1  3  2  0  0  0  0
  1  4  1  0  0  0  0
  1 24  1  0  0  0  0
  4  5  1  0  0  0  0
  4 18  1  0  0  0  0
  5  6  1  0  0  0  0
  6  7  4  0  0  0  0
  6 11  4  0  0  0  0
  7  8  4  0  0  0  0
  8  9  4  0  0  0  0
  9 10  4  0  0  0  0
 10 11  4  0  0  0  0
 11 12  1  0  0  0  0
 12 13  4  0  0  0  0
 12 17  4  0  0  0  0
 13 14  4  0  0  0  0
 14 15  4  0  0  0  0
 15 16  4  0  0  0  0
 16 17  4  0  0  0  0
 18 19  1  0  0  0  0
 18 22  1  0  0  0  0
 19 20  1  0  0  0  0
 20 21  1  0  0  0  0
 21 22  1  0  0  0  0
 21 23  1  0  0  0  0
 24 25  1  0  0  0  0
M  END
>  <Name_Molregno>
489539

>  <Norepinephrine transporter>
6.33

>  <Serotonin transporter>
5

$$$$
489540
  Marvin  02231216192D 0   1.00000     0.00000     0

 24 26  0  0  1  0  0  0  0  0999 V2000
   -0.2275   -0.2816    0.0000 O   0  0  0  0  0  0  0  0  0
   -0.9420   -0.6941    0.0000 C   0  0  0  0  0  0  0  0  0
   -1.6565   -0.2816    0.0000 C   0  0  0  0  0  0  0  0  0
    0.4869   -0.6941    0.0000 C   0  0  0  0  0  0  0  0  0
    0.4869   -1.5191    0.0000 O   0  0  0  0  0  0  0  0  0
    1.2014   -0.2816    0.0000 N   0  0  0  0  0  0  0  0  0
    1.9159   -0.6941    0.0000 C   0  0  0  0  0  0  0  0  0
    2.6304   -0.2816    0.0000 C   0  0  0  0  0  0  0  0  0
    2.6304    0.5434    0.0000 C   0  0  0  0  0  0  0  0  0
    3.3448    0.9559    0.0000 C   0  0  0  0  0  0  0  0  0
    4.0593    0.5434    0.0000 C   0  0  0  0  0  0  0  0  0
    4.0593   -0.2816    0.0000 C   0  0  0  0  0  0  0  0  0
    3.3448   -0.6941    0.0000 C   0  0  0  0  0  0  0  0  0
    3.3448   -1.5191    0.0000 C   0  0  0  0  0  0  0  0  0
    4.0593   -1.9316    0.0000 C   0  0  0  0  0  0  0  0  0
    4.0593   -2.7566    0.0000 C   0  0  0  0  0  0  0  0  0
    3.3448   -3.1691    0.0000 C   0  0  0  0  0  0  0  0  0
    2.6304   -2.7566    0.0000 C   0  0  0  0  0  0  0  0  0
    2.6304   -1.9316    0.0000 C   0  0  0  0  0  0  0  0  0
    1.2014    0.5434    0.0000 C   0  0  0  0  0  0  0  0  0
    0.5340    1.0283    0.0000 C   0  0  0  0  0  0  0  0  0
    0.7889    1.8130    0.0000 C   0  0  0  0  0  0  0  0  0
    1.6139    1.8130    0.0000 N   0  0  0  0  0  0  0  0  0
    1.8689    1.0283    0.0000 C   0  0  0  0  0  0  0  0  0
  1  2  1  0  0  0  0
  1  4  1  0  0  0  0
  2  3  1  0  0  0  0
  4  5  2  0  0  0  0
  4  6  1  0  0  0  0
  6  7  1  0  0  0  0
  6 20  1  0  0  0  0
  7  8  1  0  0  0  0
  8  9  4  0  0  0  0
  8 13  4  0  0  0  0
  9 10  4  0  0  0  0
 10 11  4  0  0  0  0
 11 12  4  0  0  0  0
 12 13  4  0  0  0  0
 13 14  1  0  0  0  0
 14 15  4  0  0  0  0
 14 19  4  0  0  0  0
 15 16  4  0  0  0  0
 16 17  4  0  0  0  0
 17 18  4  0  0  0  0
 18 19  4  0  0  0  0
 20 21  1  0  0  0  0
 20 24  1  0  0  0  0
 21 22  1  0  0  0  0
 22 23  1  0  0  0  0
 23 24  1  0  0  0  0
M  END
>  <Name_Molregno>
489540

>  <Dopamine transporter>
5.53

>  <Norepinephrine transporter>
8

>  <Serotonin transporter>
6.1

$$$$
489605
  Marvin  02231216192D 0   1.00000     0.00000     0

 22 23  0  0  1  0  0  0  0  0999 V2000
   -4.6047   -0.7253    0.0000 F   0  0  0  0  0  0  0  0  0
   -3.8902   -0.3128    0.0000 C   0  0  0  0  0  0  0  0  0
   -3.4777   -1.0273    0.0000 F   0  0  0  0  0  0  0  0  0
   -4.3027    0.4016    0.0000 F   0  0  0  0  0  0  0  0  0
   -3.1758    0.0997    0.0000 C   0  0  0  0  0  0  0  0  0
   -3.1758    0.9247    0.0000 C   0  0  0  0  0  0  0  0  0
   -2.4613    1.3372    0.0000 C   0  0  0  0  0  0  0  0  0
   -1.7468    0.9247    0.0000 C   0  0  0  0  0  0  0  0  0
   -1.7468    0.0997    0.0000 C   0  0  0  0  0  0  0  0  0
   -2.4613   -0.3128    0.0000 C   0  0  0  0  0  0  0  0  0
   -2.4613   -1.1378    0.0000 C   0  0  0  0  0  0  0  0  0
   -1.7468   -1.5503    0.0000 N   0  0  0  0  0  0  0  0  0
   -1.0324   -1.1378    0.0000 C   0  0  0  0  0  0  0  0  0
   -1.0324   -0.3128    0.0000 O   0  0  0  0  0  0  0  0  0
   -0.3179   -1.5503    0.0000 C   0  0  0  0  0  0  0  0  0
    0.3966   -1.1378    0.0000 C   0  0  0  0  0  0  0  0  0
   -0.3179   -2.3753    0.0000 C   0  0  0  0  0  0  0  0  0
   -1.7468   -2.3753    0.0000 C   0  0  0  0  0  0  0  0  0
   -2.4143   -2.8603    0.0000 C   0  0  0  0  0  0  0  0  0
   -2.1593   -3.6449    0.0000 C   0  0  0  0  0  0  0  0  0
   -1.3343   -3.6449    0.0000 N   0  0  0  0  0  0  0  0  0
   -1.0794   -2.8603    0.0000 C   0  0  0  0  0  0  0  0  0
  1  2  1  0  0  0  0
  2  3  1  0  0  0  0
  2  4  1  0  0  0  0
  2  5  1  0  0  0  0
  5  6  4  0  0  0  0
  5 10  4  0  0  0  0
  6  7  4  0  0  0  0
  7  8  4  0  0  0  0
  8  9  4  0  0  0  0
  9 10  4  0  0  0  0
 10 11  1  0  0  0  0
 11 12  1  0  0  0  0
 12 13  1  0  0  0  0
 12 18  1  0  0  0  0
 13 14  2  0  0  0  0
 13 15  1  0  0  0  0
 15 16  1  0  0  0  0
 15 17  1  0  0  0  0
 18 19  1  0  0  0  0
 18 22  1  0  0  0  0
 19 20  1  0  0  0  0
 20 21  1  0  0  0  0
 21 22  1  0  0  0  0
M  END
>  <Name_Molregno>
489605

>  <Norepinephrine transporter>
7.2

>  <Serotonin transporter>
6.88

$$$$
489606
  Marvin  02231216192D 0   1.00000     0.00000     0

 20 21  0  0  1  0  0  0  0  0999 V2000
   -3.5848    0.4338    0.0000 S   0  0  0  0  0  0  0  0  0
   -4.2418   -0.0773    0.0000 C   0  0  0  0  0  0  0  0  0
   -2.9232    0.9822    0.0000 C   0  0  0  0  0  0  0  0  0
   -3.5705    1.4937    0.0000 C   0  0  0  0  0  0  0  0  0
   -3.4511    2.3100    0.0000 C   0  0  0  0  0  0  0  0  0
   -2.6845    2.6148    0.0000 C   0  0  0  0  0  0  0  0  0
   -2.0372    2.1033    0.0000 C   0  0  0  0  0  0  0  0  0
   -2.1565    1.2870    0.0000 C   0  0  0  0  0  0  0  0  0
   -1.3678    1.0739    0.0000 C   0  0  0  0  0  0  0  0  0
   -1.6673    0.2883    0.0000 N   0  0  0  0  0  0  0  0  0
   -0.7642    0.1803    0.0000 C   0  0  0  0  0  0  0  0  0
   -0.3518   -0.5753    0.0000 O   0  0  0  0  0  0  0  0  0
    0.1080    0.2883    0.0000 C   0  0  0  0  0  0  0  0  0
    0.6266    0.9346    0.0000 C   0  0  0  0  0  0  0  0  0
    0.7755   -0.2093    0.0000 C   0  0  0  0  0  0  0  0  0
   -2.3952   -0.3457    0.0000 C   0  0  0  0  0  0  0  0  0
   -1.5719   -0.2927    0.0000 C   0  0  0  0  0  0  0  0  0
   -1.2671   -1.0593    0.0000 C   0  0  0  0  0  0  0  0  0
   -1.9020   -1.5861    0.0000 N   0  0  0  0  0  0  0  0  0
   -2.5992   -1.1450    0.0000 C   0  0  0  0  0  0  0  0  0
  1  2  1  0  0  0  0
  1  3  1  0  0  0  0
  3  4  4  0  0  0  0
  3  8  4  0  0  0  0
  4  5  4  0  0  0  0
  5  6  4  0  0  0  0
  6  7  4  0  0  0  0
  7  8  4  0  0  0  0
  8  9  1  0  0  0  0
  9 10  1  0  0  0  0
 10 11  1  0  0  0  0
 10 16  1  0  0  0  0
 11 12  2  0  0  0  0
 11 13  1  0  0  0  0
 13 14  1  0  0  0  0
 13 15  1  0  0  0  0
 16 17  1  0  0  0  0
 16 20  1  0  0  0  0
 17 18  1  0  0  0  0
 18 19  1  0  0  0  0
 19 20  1  0  0  0  0
M  END
>  <Name_Molregno>
489606

>  <Dopamine transporter>
5.86

>  <Norepinephrine transporter>
7.19

>  <Serotonin transporter>
7.3

$$$$
489607
  Marvin  02231216192D 0   1.00000     0.00000     0

 25 27  0  0  1  0  0  0  0  0999 V2000
   -2.0464   -1.3632    0.0000 O   0  0  0  0  0  0  0  0  0
   -2.0464   -0.5382    0.0000 C   0  0  0  0  0  0  0  0  0
   -2.7609   -0.1257    0.0000 C   0  0  0  0  0  0  0  0  0
   -2.7609    0.6993    0.0000 C   0  0  0  0  0  0  0  0  0
   -2.0464    1.1118    0.0000 C   0  0  0  0  0  0  0  0  0
   -1.3319    0.6993    0.0000 C   0  0  0  0  0  0  0  0  0
   -1.3319   -0.1257    0.0000 C   0  0  0  0  0  0  0  0  0
   -0.6174   -0.5382    0.0000 C   0  0  0  0  0  0  0  0  0
    0.0970   -0.1257    0.0000 N   0  0  0  0  0  0  0  0  0
    0.8115   -0.5382    0.0000 C   0  0  0  0  0  0  0  0  0
    0.8115   -1.3632    0.0000 O   0  0  0  0  0  0  0  0  0
    1.5260   -0.1257    0.0000 C   0  0  0  0  0  0  0  0  0
    2.2404   -0.5382    0.0000 C   0  0  0  0  0  0  0  0  0
    1.5260    0.6993    0.0000 C   0  0  0  0  0  0  0  0  0
    0.0970    0.6993    0.0000 C   0  0  0  0  0  0  0  0  0
   -0.5704    1.1843    0.0000 C   0  0  0  0  0  0  0  0  0
   -0.3155    1.9689    0.0000 C   0  0  0  0  0  0  0  0  0
    0.5095    1.9689    0.0000 N   0  0  0  0  0  0  0  0  0
    0.7645    1.1843    0.0000 C   0  0  0  0  0  0  0  0  0
   -2.7609   -1.7757    0.0000 C   0  0  0  0  0  0  0  0  0
   -2.7609   -2.6007    0.0000 C   0  0  0  0  0  0  0  0  0
   -3.4753   -3.0132    0.0000 C   0  0  0  0  0  0  0  0  0
   -4.1898   -2.6007    0.0000 C   0  0  0  0  0  0  0  0  0
   -4.1898   -1.7757    0.0000 C   0  0  0  0  0  0  0  0  0
   -3.4753   -1.3632    0.0000 C   0  0  0  0  0  0  0  0  0
  1  2  1  0  0  0  0
  1 20  1  0  0  0  0
  2  3  4  0  0  0  0
  2  7  4  0  0  0  0
  3  4  4  0  0  0  0
  4  5  4  0  0  0  0
  5  6  4  0  0  0  0
  6  7  4  0  0  0  0
  7  8  1  0  0  0  0
  8  9  1  0  0  0  0
  9 10  1  0  0  0  0
  9 15  1  0  0  0  0
 10 11  2  0  0  0  0
 10 12  1  0  0  0  0
 12 13  1  0  0  0  0
 12 14  1  0  0  0  0
 15 16  1  0  0  0  0
 15 19  1  0  0  0  0
 16 17  1  0  0  0  0
 17 18  1  0  0  0  0
 18 19  1  0  0  0  0
 20 21  4  0  0  0  0
 20 25  4  0  0  0  0
 21 22  4  0  0  0  0
 22 23  4  0  0  0  0
 23 24  4  0  0  0  0
 24 25  4  0  0  0  0
M  END
>  <Name_Molregno>
489607

>  <Dopamine transporter>
5.46

>  <Norepinephrine transporter>
7.47

>  <Serotonin transporter>
6.64

$$$$
489608
  Marvin  02231216192D 0   1.00000     0.00000     0

 23 25  0  0  1  0  0  0  0  0999 V2000
    0.4119   -1.5989    0.0000 O   0  0  0  0  0  0  0  0  0
    0.4119   -0.7739    0.0000 C   0  0  0  0  0  0  0  0  0
   -0.3026   -0.3614    0.0000 O   0  0  0  0  0  0  0  0  0
    1.1263   -0.3614    0.0000 N   0  0  0  0  0  0  0  0  0
    1.8408   -0.7739    0.0000 C   0  0  0  0  0  0  0  0  0
    2.5553   -0.3614    0.0000 C   0  0  0  0  0  0  0  0  0
    2.5553    0.4636    0.0000 C   0  0  0  0  0  0  0  0  0
    3.2698    0.8761    0.0000 C   0  0  0  0  0  0  0  0  0
    3.9842    0.4636    0.0000 C   0  0  0  0  0  0  0  0  0
    3.9842   -0.3614    0.0000 C   0  0  0  0  0  0  0  0  0
    3.2698   -0.7739    0.0000 C   0  0  0  0  0  0  0  0  0
    3.2698   -1.5989    0.0000 C   0  0  0  0  0  0  0  0  0
    3.9842   -2.0114    0.0000 C   0  0  0  0  0  0  0  0  0
    3.9842   -2.8364    0.0000 C   0  0  0  0  0  0  0  0  0
    3.2698   -3.2489    0.0000 C   0  0  0  0  0  0  0  0  0
    2.5553   -2.8364    0.0000 C   0  0  0  0  0  0  0  0  0
    2.5553   -2.0114    0.0000 C   0  0  0  0  0  0  0  0  0
    1.1263    0.4636    0.0000 C   0  0  0  0  0  0  0  0  0
    0.4589    0.9486    0.0000 C   0  0  0  0  0  0  0  0  0
    0.7138    1.7332    0.0000 C   0  0  0  0  0  0  0  0  0
    1.5388    1.7332    0.0000 N   0  0  0  0  0  0  0  0  0
    1.7938    0.9486    0.0000 C   0  0  0  0  0  0  0  0  0
   -0.3026   -2.0114    0.0000 C   0  0  0  0  0  0  0  0  0
  1  2  1  0  0  0  0
  1 23  1  0  0  0  0
  2  3  2  0  0  0  0
  2  4  1  0  0  0  0
  4  5  1  0  0  0  0
  4 18  1  0  0  0  0
  5  6  1  0  0  0  0
  6  7  4  0  0  0  0
  6 11  4  0  0  0  0
  7  8  4  0  0  0  0
  8  9  4  0  0  0  0
  9 10  4  0  0  0  0
 10 11  4  0  0  0  0
 11 12  1  0  0  0  0
 12 13  4  0  0  0  0
 12 17  4  0  0  0  0
 13 14  4  0  0  0  0
 14 15  4  0  0  0  0
 15 16  4  0  0  0  0
 16 17  4  0  0  0  0
 18 19  1  0  0  0  0
 18 22  1  0  0  0  0
 19 20  1  0  0  0  0
 20 21  1  0  0  0  0
 21 22  1  0  0  0  0
M  END
>  <Name_Molregno>
489608

>  <Dopamine transporter>
5.5

>  <Norepinephrine transporter>
7.74

>  <Serotonin transporter>
5.35

$$$$
489610
  Marvin  02231216192D 0   1.00000     0.00000     0

 25 27  0  0  1  0  0  0  0  0999 V2000
    0.7433    0.6965    0.0000 S   0  0  0  0  0  0  0  0  0
    0.7433    1.5215    0.0000 O   0  0  0  0  0  0  0  0  0
    0.7433   -0.1285    0.0000 O   0  0  0  0  0  0  0  0  0
   -0.0817    0.6965    0.0000 N   0  0  0  0  0  0  0  0  0
   -0.4942    1.4110    0.0000 C   0  0  0  0  0  0  0  0  0
   -1.3192    1.4110    0.0000 C   0  0  0  0  0  0  0  0  0
   -1.7317    0.6965    0.0000 C   0  0  0  0  0  0  0  0  0
   -2.5567    0.6965    0.0000 C   0  0  0  0  0  0  0  0  0
   -2.9692    1.4110    0.0000 C   0  0  0  0  0  0  0  0  0
   -2.5567    2.1254    0.0000 C   0  0  0  0  0  0  0  0  0
   -1.7317    2.1254    0.0000 C   0  0  0  0  0  0  0  0  0
   -1.3192    2.8399    0.0000 C   0  0  0  0  0  0  0  0  0
   -1.7317    3.5544    0.0000 C   0  0  0  0  0  0  0  0  0
   -1.3192    4.2688    0.0000 C   0  0  0  0  0  0  0  0  0
   -0.4942    4.2688    0.0000 C   0  0  0  0  0  0  0  0  0
   -0.0817    3.5544    0.0000 C   0  0  0  0  0  0  0  0  0
   -0.4942    2.8399    0.0000 C   0  0  0  0  0  0  0  0  0
   -0.4942   -0.0180    0.0000 C   0  0  0  0  0  0  0  0  0
   -0.1586   -0.7717    0.0000 C   0  0  0  0  0  0  0  0  0
   -0.7717   -1.3237    0.0000 C   0  0  0  0  0  0  0  0  0
   -1.4862   -0.9112    0.0000 N   0  0  0  0  0  0  0  0  0
   -1.3147   -0.1042    0.0000 C   0  0  0  0  0  0  0  0  0
    1.5683    0.6965    0.0000 C   0  0  0  0  0  0  0  0  0
    1.9808    1.4110    0.0000 C   0  0  0  0  0  0  0  0  0
    1.9808   -0.0180    0.0000 C   0  0  0  0  0  0  0  0  0
  1  2  2  0  0  0  0
  1  3  2  0  0  0  0
  1  4  1  0  0  0  0
  1 23  1  0  0  0  0
  4  5  1  0  0  0  0
  4 18  1  0  0  0  0
  5  6  1  0  0  0  0
  6  7  4  0  0  0  0
  6 11  4  0  0  0  0
  7  8  4  0  0  0  0
  8  9  4  0  0  0  0
  9 10  4  0  0  0  0
 10 11  4  0  0  0  0
 11 12  1  0  0  0  0
 12 13  4  0  0  0  0
 12 17  4  0  0  0  0
 13 14  4  0  0  0  0
 14 15  4  0  0  0  0
 15 16  4  0  0  0  0
 16 17  4  0  0  0  0
 18 19  1  0  0  0  0
 18 22  1  0  0  0  0
 19 20  1  0  0  0  0
 20 21  1  0  0  0  0
 21 22  1  0  0  0  0
 23 24  1  0  0  0  0
 23 25  1  0  0  0  0
M  END
>  <Name_Molregno>
489610

>  <Dopamine transporter>
5.57

>  <Norepinephrine transporter>
8

>  <Serotonin transporter>
5.33

$$$$
489611
  Marvin  02231216192D 0   1.00000     0.00000     0

 26 28  0  0  1  0  0  0  0  0999 V2000
    2.3980   -1.3798    0.0000 S   0  0  0  0  0  0  0  0  0
    2.3980   -2.2048    0.0000 O   0  0  0  0  0  0  0  0  0
    2.3980   -0.5548    0.0000 O   0  0  0  0  0  0  0  0  0
    1.5730   -1.3798    0.0000 N   0  0  0  0  0  0  0  0  0
    1.1605   -0.6653    0.0000 C   0  0  0  0  0  0  0  0  0
    0.3355   -0.6653    0.0000 C   0  0  0  0  0  0  0  0  0
   -0.0770   -1.3798    0.0000 C   0  0  0  0  0  0  0  0  0
   -0.9020   -1.3798    0.0000 C   0  0  0  0  0  0  0  0  0
   -1.3145   -0.6653    0.0000 C   0  0  0  0  0  0  0  0  0
   -0.9020    0.0492    0.0000 C   0  0  0  0  0  0  0  0  0
   -0.0770    0.0492    0.0000 C   0  0  0  0  0  0  0  0  0
    0.3355    0.7637    0.0000 C   0  0  0  0  0  0  0  0  0
   -0.0770    1.4781    0.0000 C   0  0  0  0  0  0  0  0  0
    0.3355    2.1926    0.0000 C   0  0  0  0  0  0  0  0  0
    1.1605    2.1926    0.0000 C   0  0  0  0  0  0  0  0  0
    1.5730    1.4781    0.0000 C   0  0  0  0  0  0  0  0  0
    1.1605    0.7637    0.0000 C   0  0  0  0  0  0  0  0  0
    1.1605   -2.0942    0.0000 C   0  0  0  0  0  0  0  0  0
    1.4961   -2.8479    0.0000 C   0  0  0  0  0  0  0  0  0
    0.8830   -3.3999    0.0000 C   0  0  0  0  0  0  0  0  0
    0.1685   -2.9874    0.0000 N   0  0  0  0  0  0  0  0  0
    0.3400   -2.1805    0.0000 C   0  0  0  0  0  0  0  0  0
    3.2230   -1.3798    0.0000 C   0  0  0  0  0  0  0  0  0
    3.2230   -2.2048    0.0000 F   0  0  0  0  0  0  0  0  0
    3.2230   -0.5548    0.0000 F   0  0  0  0  0  0  0  0  0
    4.0480   -1.3798    0.0000 F   0  0  0  0  0  0  0  0  0
  1  2  2  0  0  0  0
  1  3  2  0  0  0  0
  1  4  1  0  0  0  0
  1 23  1  0  0  0  0
  4  5  1  0  0  0  0
  4 18  1  0  0  0  0
  5  6  1  0  0  0  0
  6  7  4  0  0  0  0
  6 11  4  0  0  0  0
  7  8  4  0  0  0  0
  8  9  4  0  0  0  0
  9 10  4  0  0  0  0
 10 11  4  0  0  0  0
 11 12  1  0  0  0  0
 12 13  4  0  0  0  0
 12 17  4  0  0  0  0
 13 14  4  0  0  0  0
 14 15  4  0  0  0  0
 15 16  4  0  0  0  0
 16 17  4  0  0  0  0
 18 19  1  0  0  0  0
 18 22  1  0  0  0  0
 19 20  1  0  0  0  0
 20 21  1  0  0  0  0
 21 22  1  0  0  0  0
 23 24  1  0  0  0  0
 23 25  1  0  0  0  0
 23 26  1  0  0  0  0
M  END
>  <Name_Molregno>
489611

>  <Dopamine transporter>
5.68

>  <Norepinephrine transporter>
7.52

>  <Serotonin transporter>
5.28

$$$$
489612
  Marvin  02231216192D 0   1.00000     0.00000     0

 21 22  0  0  1  0  0  0  0  0999 V2000
    2.6983   -0.7056    0.0000 S   0  0  0  0  0  0  0  0  0
    3.4128   -0.2931    0.0000 O   0  0  0  0  0  0  0  0  0
    3.1108   -1.4201    0.0000 O   0  0  0  0  0  0  0  0  0
    1.9838   -1.1181    0.0000 N   0  0  0  0  0  0  0  0  0
    1.2693   -0.7056    0.0000 C   0  0  0  0  0  0  0  0  0
    0.5549   -1.1181    0.0000 C   0  0  0  0  0  0  0  0  0
    0.5549   -1.9431    0.0000 C   0  0  0  0  0  0  0  0  0
   -0.1596   -2.3556    0.0000 C   0  0  0  0  0  0  0  0  0
   -0.8741   -1.9431    0.0000 C   0  0  0  0  0  0  0  0  0
   -0.8741   -1.1181    0.0000 C   0  0  0  0  0  0  0  0  0
   -0.1596   -0.7056    0.0000 C   0  0  0  0  0  0  0  0  0
   -0.1596    0.1194    0.0000 C   0  0  0  0  0  0  0  0  0
   -0.1596    0.9444    0.0000 F   0  0  0  0  0  0  0  0  0
   -0.9846    0.1194    0.0000 F   0  0  0  0  0  0  0  0  0
    0.6654    0.1194    0.0000 F   0  0  0  0  0  0  0  0  0
    1.9838   -1.9431    0.0000 C   0  0  0  0  0  0  0  0  0
    2.6513   -2.4280    0.0000 C   0  0  0  0  0  0  0  0  0
    2.3963   -3.2126    0.0000 C   0  0  0  0  0  0  0  0  0
    1.5713   -3.2126    0.0000 N   0  0  0  0  0  0  0  0  0
    1.3164   -2.4280    0.0000 C   0  0  0  0  0  0  0  0  0
    2.2858    0.0089    0.0000 C   0  0  0  0  0  0  0  0  0
  1  2  2  0  0  0  0
  1  3  2  0  0  0  0
  1  4  1  0  0  0  0
  1 21  1  0  0  0  0
  4  5  1  0  0  0  0
  4 16  1  0  0  0  0
  5  6  1  0  0  0  0
  6  7  4  0  0  0  0
  6 11  4  0  0  0  0
  7  8  4  0  0  0  0
  8  9  4  0  0  0  0
  9 10  4  0  0  0  0
 10 11  4  0  0  0  0
 11 12  1  0  0  0  0
 12 13  1  0  0  0  0
 12 14  1  0  0  0  0
 12 15  1  0  0  0  0
 16 17  1  0  0  0  0
 16 20  1  0  0  0  0
 17 18  1  0  0  0  0
 18 19  1  0  0  0  0
 19 20  1  0  0  0  0
M  END
>  <Name_Molregno>
489612

>  <Dopamine transporter>
5.54

>  <Norepinephrine transporter>
7.07

>  <Serotonin transporter>
5.54

$$$$
489613
  Marvin  02231216192D 0   1.00000     0.00000     0

 19 20  0  0  1  0  0  0  0  0999 V2000
   -3.6717    1.2996    0.0000 S   0  0  0  0  0  0  0  0  0
   -4.3862    1.7121    0.0000 C   0  0  0  0  0  0  0  0  0
   -2.9572    1.7121    0.0000 C   0  0  0  0  0  0  0  0  0
   -2.9572    2.5371    0.0000 C   0  0  0  0  0  0  0  0  0
   -2.2427    2.9496    0.0000 C   0  0  0  0  0  0  0  0  0
   -1.5283    2.5371    0.0000 C   0  0  0  0  0  0  0  0  0
   -1.5283    1.7121    0.0000 C   0  0  0  0  0  0  0  0  0
   -2.2427    1.2996    0.0000 C   0  0  0  0  0  0  0  0  0
   -2.2427    0.4746    0.0000 C   0  0  0  0  0  0  0  0  0
   -1.5283    0.0621    0.0000 N   0  0  0  0  0  0  0  0  0
   -0.8138    0.4746    0.0000 S   0  0  0  0  0  0  0  0  0
   -0.0993    0.8871    0.0000 O   0  0  0  0  0  0  0  0  0
   -0.4013   -0.2398    0.0000 O   0  0  0  0  0  0  0  0  0
   -1.2263    1.1891    0.0000 C   0  0  0  0  0  0  0  0  0
   -1.5283   -0.7629    0.0000 C   0  0  0  0  0  0  0  0  0
   -0.8608   -1.2478    0.0000 C   0  0  0  0  0  0  0  0  0
   -1.1158   -2.0324    0.0000 C   0  0  0  0  0  0  0  0  0
   -1.9408   -2.0324    0.0000 N   0  0  0  0  0  0  0  0  0
   -2.1957   -1.2478    0.0000 C   0  0  0  0  0  0  0  0  0
  1  2  1  0  0  0  0
  1  3  1  0  0  0  0
  3  4  4  0  0  0  0
  3  8  4  0  0  0  0
  4  5  4  0  0  0  0
  5  6  4  0  0  0  0
  6  7  4  0  0  0  0
  7  8  4  0  0  0  0
  8  9  1  0  0  0  0
  9 10  1  0  0  0  0
 10 11  1  0  0  0  0
 10 15  1  0  0  0  0
 11 12  2  0  0  0  0
 11 13  2  0  0  0  0
 11 14  1  0  0  0  0
 15 16  1  0  0  0  0
 15 19  1  0  0  0  0
 16 17  1  0  0  0  0
 17 18  1  0  0  0  0
 18 19  1  0  0  0  0
M  END
>  <Name_Molregno>
489613

>  <Dopamine transporter>
5.53

>  <Norepinephrine transporter>
7.07

>  <Serotonin transporter>
5.9

$$$$
489614
  Marvin  02231216192D 0   1.00000     0.00000     0

 24 26  0  0  1  0  0  0  0  0999 V2000
    1.9092   -1.6262    0.0000 S   0  0  0  0  0  0  0  0  0
    2.3217   -2.3407    0.0000 O   0  0  0  0  0  0  0  0  0
    1.4967   -0.9118    0.0000 O   0  0  0  0  0  0  0  0  0
    1.1947   -2.0387    0.0000 N   0  0  0  0  0  0  0  0  0
    0.4802   -1.6262    0.0000 C   0  0  0  0  0  0  0  0  0
    0.4802   -0.8012    0.0000 C   0  0  0  0  0  0  0  0  0
   -0.2342   -0.3887    0.0000 C   0  0  0  0  0  0  0  0  0
   -0.2342    0.4363    0.0000 C   0  0  0  0  0  0  0  0  0
    0.4802    0.8488    0.0000 C   0  0  0  0  0  0  0  0  0
    1.1947    0.4363    0.0000 C   0  0  0  0  0  0  0  0  0
    1.1947   -0.3887    0.0000 C   0  0  0  0  0  0  0  0  0
    1.9092   -0.8012    0.0000 O   0  0  0  0  0  0  0  0  0
    2.6237   -0.3887    0.0000 C   0  0  0  0  0  0  0  0  0
    2.6237    0.4363    0.0000 C   0  0  0  0  0  0  0  0  0
    3.3381    0.8488    0.0000 C   0  0  0  0  0  0  0  0  0
    4.0526    0.4363    0.0000 C   0  0  0  0  0  0  0  0  0
    4.0526   -0.3887    0.0000 C   0  0  0  0  0  0  0  0  0
    3.3381   -0.8012    0.0000 C   0  0  0  0  0  0  0  0  0
    1.1947   -2.8637    0.0000 C   0  0  0  0  0  0  0  0  0
    0.5273   -3.3487    0.0000 C   0  0  0  0  0  0  0  0  0
    0.7822   -4.1333    0.0000 C   0  0  0  0  0  0  0  0  0
    1.6072   -4.1333    0.0000 N   0  0  0  0  0  0  0  0  0
    1.8622   -3.3487    0.0000 C   0  0  0  0  0  0  0  0  0
    2.6237   -1.2137    0.0000 C   0  0  0  0  0  0  0  0  0
  1  2  2  0  0  0  0
  1  3  2  0  0  0  0
  1  4  1  0  0  0  0
  1 24  1  0  0  0  0
  4  5  1  0  0  0  0
  4 19  1  0  0  0  0
  5  6  1  0  0  0  0
  6  7  4  0  0  0  0
  6 11  4  0  0  0  0
  7  8  4  0  0  0  0
  8  9  4  0  0  0  0
  9 10  4  0  0  0  0
 10 11  4  0  0  0  0
 11 12  1  0  0  0  0
 12 13  1  0  0  0  0
 13 14  4  0  0  0  0
 13 18  4  0  0  0  0
 14 15  4  0  0  0  0
 15 16  4  0  0  0  0
 16 17  4  0  0  0  0
 17 18  4  0  0  0  0
 19 20  1  0  0  0  0
 19 23  1  0  0  0  0
 20 21  1  0  0  0  0
 21 22  1  0  0  0  0
 22 23  1  0  0  0  0
M  END
>  <Name_Molregno>
489614

>  <Dopamine transporter>
5.59

>  <Norepinephrine transporter>
7.02

>  <Serotonin transporter>
5.57

$$$$
489615
  Marvin  02231216192D 0   1.00000     0.00000     0

 25 27  0  0  1  0  0  0  0  0999 V2000
    0.7433    0.6965    0.0000 S   0  0  0  0  0  0  0  0  0
    0.7433    1.5215    0.0000 O   0  0  0  0  0  0  0  0  0
    0.7433   -0.1285    0.0000 O   0  0  0  0  0  0  0  0  0
   -0.0817    0.6965    0.0000 N   0  0  0  0  0  0  0  0  0
   -0.4942    1.4110    0.0000 C   0  0  0  0  0  0  0  0  0
   -1.3192    1.4110    0.0000 C   0  0  0  0  0  0  0  0  0
   -1.7317    0.6965    0.0000 C   0  0  0  0  0  0  0  0  0
   -2.5567    0.6965    0.0000 C   0  0  0  0  0  0  0  0  0
   -2.9692    1.4110    0.0000 C   0  0  0  0  0  0  0  0  0
   -2.5567    2.1254    0.0000 C   0  0  0  0  0  0  0  0  0
   -1.7317    2.1254    0.0000 C   0  0  0  0  0  0  0  0  0
   -1.3192    2.8399    0.0000 C   0  0  0  0  0  0  0  0  0
   -1.7317    3.5544    0.0000 C   0  0  0  0  0  0  0  0  0
   -1.3192    4.2688    0.0000 C   0  0  0  0  0  0  0  0  0
   -0.4942    4.2688    0.0000 C   0  0  0  0  0  0  0  0  0
   -0.0817    3.5544    0.0000 C   0  0  0  0  0  0  0  0  0
   -0.4942    2.8399    0.0000 C   0  0  0  0  0  0  0  0  0
   -0.4942   -0.0180    0.0000 C   0  0  0  0  0  0  0  0  0
   -0.1586   -0.7717    0.0000 C   0  0  0  0  0  0  0  0  0
   -0.7717   -1.3237    0.0000 C   0  0  0  0  0  0  0  0  0
   -1.4862   -0.9112    0.0000 N   0  0  0  0  0  0  0  0  0
   -1.3147   -0.1042    0.0000 C   0  0  0  0  0  0  0  0  0
    1.5683    0.6965    0.0000 N   0  0  0  0  0  0  0  0  0
    1.9808    1.4110    0.0000 C   0  0  0  0  0  0  0  0  0
    1.9808   -0.0180    0.0000 C   0  0  0  0  0  0  0  0  0
  1  2  2  0  0  0  0
  1  3  2  0  0  0  0
  1  4  1  0  0  0  0
  1 23  1  0  0  0  0
  4  5  1  0  0  0  0
  4 18  1  0  0  0  0
  5  6  1  0  0  0  0
  6  7  4  0  0  0  0
  6 11  4  0  0  0  0
  7  8  4  0  0  0  0
  8  9  4  0  0  0  0
  9 10  4  0  0  0  0
 10 11  4  0  0  0  0
 11 12  1  0  0  0  0
 12 13  4  0  0  0  0
 12 17  4  0  0  0  0
 13 14  4  0  0  0  0
 14 15  4  0  0  0  0
 15 16  4  0  0  0  0
 16 17  4  0  0  0  0
 18 19  1  0  0  0  0
 18 22  1  0  0  0  0
 19 20  1  0  0  0  0
 20 21  1  0  0  0  0
 21 22  1  0  0  0  0
 23 24  1  0  0  0  0
 23 25  1  0  0  0  0
M  END
>  <Name_Molregno>
489615

>  <Dopamine transporter>
5.57

>  <Norepinephrine transporter>
8.1

>  <Serotonin transporter>
5.48

$$$$
489682
  Marvin  02231216192D 0   1.00000     0.00000     0

 19 21  0  0  1  0  0  0  0  0999 V2000
   -3.8103   -1.1772    0.0000 N   0  0  0  0  0  0  0  0  0
   -4.0652   -0.3926    0.0000 C   0  0  0  0  0  0  0  0  0
   -3.3978    0.0923    0.0000 C   0  0  0  0  0  0  0  0  0
   -3.3978    0.9173    0.0000 N   0  0  0  0  0  0  0  0  0
   -2.6833    1.3298    0.0000 C   0  0  0  0  0  0  0  0  0
   -2.6833    2.1548    0.0000 C   0  0  0  0  0  0  0  0  0
   -3.3978    2.5673    0.0000 C   0  0  0  0  0  0  0  0  0
   -3.3978    3.3923    0.0000 C   0  0  0  0  0  0  0  0  0
   -2.6833    3.8048    0.0000 C   0  0  0  0  0  0  0  0  0
   -1.9688    3.3923    0.0000 C   0  0  0  0  0  0  0  0  0
   -1.9688    2.5673    0.0000 C   0  0  0  0  0  0  0  0  0
   -1.2544    2.1548    0.0000 C   0  0  0  0  0  0  0  0  0
   -0.5399    2.5673    0.0000 C   0  0  0  0  0  0  0  0  0
    0.1746    2.1548    0.0000 C   0  0  0  0  0  0  0  0  0
    0.1746    1.3298    0.0000 C   0  0  0  0  0  0  0  0  0
   -0.5399    0.9173    0.0000 C   0  0  0  0  0  0  0  0  0
   -1.2544    1.3298    0.0000 C   0  0  0  0  0  0  0  0  0
   -2.7303   -0.3926    0.0000 C   0  0  0  0  0  0  0  0  0
   -2.9853   -1.1772    0.0000 C   0  0  0  0  0  0  0  0  0
  1  2  1  0  0  0  0
  1 19  1  0  0  0  0
  2  3  1  0  0  0  0
  3  4  1  0  0  0  0
  3 18  1  0  0  0  0
  4  5  1  0  0  0  0
  5  6  1  0  0  0  0
  6  7  4  0  0  0  0
  6 11  4  0  0  0  0
  7  8  4  0  0  0  0
  8  9  4  0  0  0  0
  9 10  4  0  0  0  0
 10 11  4  0  0  0  0
 11 12  1  0  0  0  0
 12 13  4  0  0  0  0
 12 17  4  0  0  0  0
 13 14  4  0  0  0  0
 14 15  4  0  0  0  0
 15 16  4  0  0  0  0
 16 17  4  0  0  0  0
 18 19  1  0  0  0  0
M  END
>  <Name_Molregno>
489682

>  <Dopamine transporter>
5.61

>  <Norepinephrine transporter>
6.57

>  <Serotonin transporter>
5.97

$$$$
489683
  Marvin  02231216192D 0   1.00000     0.00000     0

 21 23  0  0  1  0  0  0  0  0999 V2000
    0.5479   -0.0710    0.0000 O   0  0  0  0  0  0  0  0  0
    0.5479   -0.8960    0.0000 C   0  0  0  0  0  0  0  0  0
    1.2624   -1.3085    0.0000 N   0  0  0  0  0  0  0  0  0
    1.9769   -0.8960    0.0000 C   0  0  0  0  0  0  0  0  0
    1.9769   -0.0710    0.0000 C   0  0  0  0  0  0  0  0  0
    1.2624    0.3415    0.0000 C   0  0  0  0  0  0  0  0  0
    1.2624    1.1665    0.0000 C   0  0  0  0  0  0  0  0  0
    1.9769    1.5790    0.0000 C   0  0  0  0  0  0  0  0  0
    2.6913    1.1665    0.0000 C   0  0  0  0  0  0  0  0  0
    2.6913    0.3415    0.0000 C   0  0  0  0  0  0  0  0  0
    3.4058   -0.0710    0.0000 C   0  0  0  0  0  0  0  0  0
    4.1203    0.3415    0.0000 C   0  0  0  0  0  0  0  0  0
    4.8347   -0.0710    0.0000 C   0  0  0  0  0  0  0  0  0
    4.8347   -0.8960    0.0000 C   0  0  0  0  0  0  0  0  0
    4.1203   -1.3085    0.0000 C   0  0  0  0  0  0  0  0  0
    3.4058   -0.8960    0.0000 C   0  0  0  0  0  0  0  0  0
    1.2624   -2.1335    0.0000 C   0  0  0  0  0  0  0  0  0
    1.9298   -2.6185    0.0000 C   0  0  0  0  0  0  0  0  0
    1.6749   -3.4031    0.0000 C   0  0  0  0  0  0  0  0  0
    0.8499   -3.4031    0.0000 N   0  0  0  0  0  0  0  0  0
    0.5949   -2.6185    0.0000 C   0  0  0  0  0  0  0  0  0
  1  2  2  0  0  0  0
  2  3  1  0  0  0  0
  3  4  1  0  0  0  0
  3 17  1  0  0  0  0
  4  5  1  0  0  0  0
  5  6  4  0  0  0  0
  5 10  4  0  0  0  0
  6  7  4  0  0  0  0
  7  8  4  0  0  0  0
  8  9  4  0  0  0  0
  9 10  4  0  0  0  0
 10 11  1  0  0  0  0
 11 12  4  0  0  0  0
 11 16  4  0  0  0  0
 12 13  4  0  0  0  0
 13 14  4  0  0  0  0
 14 15  4  0  0  0  0
 15 16  4  0  0  0  0
 17 18  1  0  0  0  0
 17 21  1  0  0  0  0
 18 19  1  0  0  0  0
 19 20  1  0  0  0  0
 20 21  1  0  0  0  0
M  END
>  <Name_Molregno>
489683

>  <Dopamine transporter>
5.67

>  <Norepinephrine transporter>
6.93

>  <Serotonin transporter>
6.06

$$$$
489684
  Marvin  02231216192D 0   1.00000     0.00000     0

 22 24  0  0  1  0  0  0  0  0999 V2000
   -2.1161   -2.2182    0.0000 O   0  0  0  0  0  0  0  0  0
   -1.4017   -1.8057    0.0000 C   0  0  0  0  0  0  0  0  0
   -0.6872   -2.2182    0.0000 N   0  0  0  0  0  0  0  0  0
    0.0273   -1.8057    0.0000 C   0  0  0  0  0  0  0  0  0
    0.0273   -0.9807    0.0000 C   0  0  0  0  0  0  0  0  0
   -0.6872   -0.5682    0.0000 C   0  0  0  0  0  0  0  0  0
   -0.6872    0.2568    0.0000 C   0  0  0  0  0  0  0  0  0
    0.0273    0.6693    0.0000 C   0  0  0  0  0  0  0  0  0
    0.7417    0.2568    0.0000 C   0  0  0  0  0  0  0  0  0
    0.7417   -0.5682    0.0000 C   0  0  0  0  0  0  0  0  0
    1.4562   -0.9807    0.0000 C   0  0  0  0  0  0  0  0  0
    2.1707   -0.5682    0.0000 C   0  0  0  0  0  0  0  0  0
    2.8851   -0.9807    0.0000 C   0  0  0  0  0  0  0  0  0
    2.8851   -1.8057    0.0000 C   0  0  0  0  0  0  0  0  0
    2.1707   -2.2182    0.0000 C   0  0  0  0  0  0  0  0  0
    1.4562   -1.8057    0.0000 C   0  0  0  0  0  0  0  0  0
   -0.6872   -3.0432    0.0000 C   0  0  0  0  0  0  0  0  0
   -0.0198   -3.5282    0.0000 C   0  0  0  0  0  0  0  0  0
   -0.2747   -4.3128    0.0000 C   0  0  0  0  0  0  0  0  0
   -1.0997   -4.3128    0.0000 N   0  0  0  0  0  0  0  0  0
   -1.3546   -3.5282    0.0000 C   0  0  0  0  0  0  0  0  0
   -1.4017   -0.9807    0.0000 C   0  0  0  0  0  0  0  0  0
  1  2  2  0  0  0  0
  2  3  1  0  0  0  0
  2 22  1  0  0  0  0
  3  4  1  0  0  0  0
  3 17  1  0  0  0  0
  4  5  1  0  0  0  0
  5  6  4  0  0  0  0
  5 10  4  0  0  0  0
  6  7  4  0  0  0  0
  7  8  4  0  0  0  0
  8  9  4  0  0  0  0
  9 10  4  0  0  0  0
 10 11  1  0  0  0  0
 11 12  4  0  0  0  0
 11 16  4  0  0  0  0
 12 13  4  0  0  0  0
 13 14  4  0  0  0  0
 14 15  4  0  0  0  0
 15 16  4  0  0  0  0
 17 18  1  0  0  0  0
 17 21  1  0  0  0  0
 18 19  1  0  0  0  0
 19 20  1  0  0  0  0
 20 21  1  0  0  0  0
M  END
>  <Name_Molregno>
489684

>  <Norepinephrine transporter>
6.91

>  <Serotonin transporter>
5.24

$$$$
489685
  Marvin  02231216192D 0   1.00000     0.00000     0

 23 25  0  0  1  0  0  0  0  0999 V2000
    1.0779   -3.7785    0.0000 O   0  0  0  0  0  0  0  0  0
    1.0779   -2.9535    0.0000 C   0  0  0  0  0  0  0  0  0
    0.3634   -2.5410    0.0000 N   0  0  0  0  0  0  0  0  0
    0.3634   -1.7160    0.0000 C   0  0  0  0  0  0  0  0  0
   -0.3511   -1.3035    0.0000 C   0  0  0  0  0  0  0  0  0
   -1.0655   -1.7160    0.0000 C   0  0  0  0  0  0  0  0  0
   -1.7800   -1.3035    0.0000 C   0  0  0  0  0  0  0  0  0
   -1.7800   -0.4785    0.0000 C   0  0  0  0  0  0  0  0  0
   -1.0655   -0.0660    0.0000 C   0  0  0  0  0  0  0  0  0
   -0.3511   -0.4785    0.0000 C   0  0  0  0  0  0  0  0  0
    0.3634   -0.0660    0.0000 C   0  0  0  0  0  0  0  0  0
    0.3634    0.7590    0.0000 C   0  0  0  0  0  0  0  0  0
    1.0779    1.1715    0.0000 C   0  0  0  0  0  0  0  0  0
    1.7923    0.7590    0.0000 C   0  0  0  0  0  0  0  0  0
    1.7923   -0.0660    0.0000 C   0  0  0  0  0  0  0  0  0
    1.0779   -0.4785    0.0000 C   0  0  0  0  0  0  0  0  0
   -0.3511   -2.9535    0.0000 C   0  0  0  0  0  0  0  0  0
   -0.4373   -3.7740    0.0000 C   0  0  0  0  0  0  0  0  0
   -1.2443   -3.9455    0.0000 C   0  0  0  0  0  0  0  0  0
   -1.6568   -3.2311    0.0000 N   0  0  0  0  0  0  0  0  0
   -1.1047   -2.6180    0.0000 C   0  0  0  0  0  0  0  0  0
    1.7923   -2.5410    0.0000 C   0  0  0  0  0  0  0  0  0
    2.5068   -2.9535    0.0000 C   0  0  0  0  0  0  0  0  0
  1  2  2  0  0  0  0
  2  3  1  0  0  0  0
  2 22  1  0  0  0  0
  3  4  1  0  0  0  0
  3 17  1  0  0  0  0
  4  5  1  0  0  0  0
  5  6  4  0  0  0  0
  5 10  4  0  0  0  0
  6  7  4  0  0  0  0
  7  8  4  0  0  0  0
  8  9  4  0  0  0  0
  9 10  4  0  0  0  0
 10 11  1  0  0  0  0
 11 12  4  0  0  0  0
 11 16  4  0  0  0  0
 12 13  4  0  0  0  0
 13 14  4  0  0  0  0
 14 15  4  0  0  0  0
 15 16  4  0  0  0  0
 17 18  1  0  0  0  0
 17 21  1  0  0  0  0
 18 19  1  0  0  0  0
 19 20  1  0  0  0  0
 20 21  1  0  0  0  0
 22 23  1  0  0  0  0
M  END
>  <Name_Molregno>
489685

>  <Norepinephrine transporter>
7.52

>  <Serotonin transporter>
5.57

$$$$
489686
  Marvin  02231216192D 0   1.00000     0.00000     0

 25 27  0  0  1  0  0  0  0  0999 V2000
   -0.2243   -0.2943    0.0000 O   0  0  0  0  0  0  0  0  0
   -0.9388   -0.7068    0.0000 C   0  0  0  0  0  0  0  0  0
   -1.6533   -0.2943    0.0000 C   0  0  0  0  0  0  0  0  0
   -0.9388   -1.5318    0.0000 C   0  0  0  0  0  0  0  0  0
    0.4901   -0.7068    0.0000 C   0  0  0  0  0  0  0  0  0
    0.4901   -1.5318    0.0000 O   0  0  0  0  0  0  0  0  0
    1.2046   -0.2943    0.0000 N   0  0  0  0  0  0  0  0  0
    1.9191   -0.7068    0.0000 C   0  0  0  0  0  0  0  0  0
    2.6335   -0.2943    0.0000 C   0  0  0  0  0  0  0  0  0
    2.6335    0.5307    0.0000 C   0  0  0  0  0  0  0  0  0
    3.3480    0.9432    0.0000 C   0  0  0  0  0  0  0  0  0
    4.0625    0.5307    0.0000 C   0  0  0  0  0  0  0  0  0
    4.0625   -0.2943    0.0000 C   0  0  0  0  0  0  0  0  0
    3.3480   -0.7068    0.0000 C   0  0  0  0  0  0  0  0  0
    3.3480   -1.5318    0.0000 C   0  0  0  0  0  0  0  0  0
    4.0625   -1.9443    0.0000 C   0  0  0  0  0  0  0  0  0
    4.0625   -2.7693    0.0000 C   0  0  0  0  0  0  0  0  0
    3.3480   -3.1818    0.0000 C   0  0  0  0  0  0  0  0  0
    2.6335   -2.7693    0.0000 C   0  0  0  0  0  0  0  0  0
    2.6335   -1.9443    0.0000 C   0  0  0  0  0  0  0  0  0
    1.2046    0.5307    0.0000 C   0  0  0  0  0  0  0  0  0
    0.5372    1.0156    0.0000 C   0  0  0  0  0  0  0  0  0
    0.7921    1.8002    0.0000 C   0  0  0  0  0  0  0  0  0
    1.6171    1.8002    0.0000 N   0  0  0  0  0  0  0  0  0
    1.8720    1.0156    0.0000 C   0  0  0  0  0  0  0  0  0
  1  2  1  0  0  0  0
  1  5  1  0  0  0  0
  2  3  1  0  0  0  0
  2  4  1  0  0  0  0
  5  6  2  0  0  0  0
  5  7  1  0  0  0  0
  7  8  1  0  0  0  0
  7 21  1  0  0  0  0
  8  9  1  0  0  0  0
  9 10  4  0  0  0  0
  9 14  4  0  0  0  0
 10 11  4  0  0  0  0
 11 12  4  0  0  0  0
 12 13  4  0  0  0  0
 13 14  4  0  0  0  0
 14 15  1  0  0  0  0
 15 16  4  0  0  0  0
 15 20  4  0  0  0  0
 16 17  4  0  0  0  0
 17 18  4  0  0  0  0
 18 19  4  0  0  0  0
 19 20  4  0  0  0  0
 21 22  1  0  0  0  0
 21 25  1  0  0  0  0
 22 23  1  0  0  0  0
 23 24  1  0  0  0  0
 24 25  1  0  0  0  0
M  END
>  <Name_Molregno>
489686

>  <Dopamine transporter>
5.7

>  <Norepinephrine transporter>
7.85

>  <Serotonin transporter>
6.1

$$$$
489687
  Marvin  02231216192D 0   1.00000     0.00000     0

 21 22  0  0  1  0  0  0  0  0999 V2000
   -2.8565    0.6268    0.0000 O   0  0  0  0  0  0  0  0  0
   -3.5710    1.0393    0.0000 C   0  0  0  0  0  0  0  0  0
   -4.2855    0.6268    0.0000 C   0  0  0  0  0  0  0  0  0
   -2.1421    1.0393    0.0000 C   0  0  0  0  0  0  0  0  0
   -2.1421    1.8643    0.0000 O   0  0  0  0  0  0  0  0  0
   -1.4276    0.6268    0.0000 N   0  0  0  0  0  0  0  0  0
   -0.7131    1.0393    0.0000 C   0  0  0  0  0  0  0  0  0
   -0.7131    1.8643    0.0000 C   0  0  0  0  0  0  0  0  0
   -1.4276    2.2768    0.0000 C   0  0  0  0  0  0  0  0  0
   -1.4276    3.1018    0.0000 C   0  0  0  0  0  0  0  0  0
   -0.7131    3.5143    0.0000 C   0  0  0  0  0  0  0  0  0
    0.0013    3.1018    0.0000 C   0  0  0  0  0  0  0  0  0
    0.0013    2.2768    0.0000 C   0  0  0  0  0  0  0  0  0
    0.7158    1.8643    0.0000 C   0  0  0  0  0  0  0  0  0
    1.4303    2.2768    0.0000 C   0  0  0  0  0  0  0  0  0
    0.7158    1.0393    0.0000 C   0  0  0  0  0  0  0  0  0
   -1.4276   -0.1982    0.0000 C   0  0  0  0  0  0  0  0  0
   -0.7602   -0.6832    0.0000 C   0  0  0  0  0  0  0  0  0
   -1.0151   -1.4678    0.0000 C   0  0  0  0  0  0  0  0  0
   -1.8401   -1.4678    0.0000 N   0  0  0  0  0  0  0  0  0
   -2.0950   -0.6832    0.0000 C   0  0  0  0  0  0  0  0  0
  1  2  1  0  0  0  0
  1  4  1  0  0  0  0
  2  3  1  0  0  0  0
  4  5  2  0  0  0  0
  4  6  1  0  0  0  0
  6  7  1  0  0  0  0
  6 17  1  0  0  0  0
  7  8  1  0  0  0  0
  8  9  4  0  0  0  0
  8 13  4  0  0  0  0
  9 10  4  0  0  0  0
 10 11  4  0  0  0  0
 11 12  4  0  0  0  0
 12 13  4  0  0  0  0
 13 14  1  0  0  0  0
 14 15  1  0  0  0  0
 14 16  1  0  0  0  0
 17 18  1  0  0  0  0
 17 21  1  0  0  0  0
 18 19  1  0  0  0  0
 19 20  1  0  0  0  0
 20 21  1  0  0  0  0
M  END
>  <Name_Molregno>
489687

>  <Dopamine transporter>
5.48

>  <Norepinephrine transporter>
7.31

>  <Serotonin transporter>
6.12

$$$$
489688
  Marvin  02231216192D 0   1.00000     0.00000     0

 22 23  0  0  1  0  0  0  0  0999 V2000
   -3.7919   -3.1688    0.0000 F   0  0  0  0  0  0  0  0  0
   -3.7919   -2.3438    0.0000 C   0  0  0  0  0  0  0  0  0
   -2.9669   -2.3438    0.0000 F   0  0  0  0  0  0  0  0  0
   -4.6169   -2.3438    0.0000 F   0  0  0  0  0  0  0  0  0
   -3.7919   -1.5188    0.0000 C   0  0  0  0  0  0  0  0  0
   -4.5064   -1.1063    0.0000 C   0  0  0  0  0  0  0  0  0
   -4.5064   -0.2813    0.0000 C   0  0  0  0  0  0  0  0  0
   -3.7919    0.1312    0.0000 C   0  0  0  0  0  0  0  0  0
   -3.0774   -0.2813    0.0000 C   0  0  0  0  0  0  0  0  0
   -3.0774   -1.1063    0.0000 C   0  0  0  0  0  0  0  0  0
   -2.3630   -1.5188    0.0000 C   0  0  0  0  0  0  0  0  0
   -1.6485   -1.1063    0.0000 N   0  0  0  0  0  0  0  0  0
   -0.9340   -1.5188    0.0000 C   0  0  0  0  0  0  0  0  0
   -0.2196   -1.1063    0.0000 O   0  0  0  0  0  0  0  0  0
    0.4949   -1.5188    0.0000 C   0  0  0  0  0  0  0  0  0
    1.2094   -1.1063    0.0000 C   0  0  0  0  0  0  0  0  0
   -0.9340   -2.3438    0.0000 O   0  0  0  0  0  0  0  0  0
   -1.6485   -0.2813    0.0000 C   0  0  0  0  0  0  0  0  0
   -2.3159    0.2036    0.0000 C   0  0  0  0  0  0  0  0  0
   -2.0610    0.9882    0.0000 C   0  0  0  0  0  0  0  0  0
   -1.2360    0.9882    0.0000 N   0  0  0  0  0  0  0  0  0
   -0.9811    0.2036    0.0000 C   0  0  0  0  0  0  0  0  0
  1  2  1  0  0  0  0
  2  3  1  0  0  0  0
  2  4  1  0  0  0  0
  2  5  1  0  0  0  0
  5  6  4  0  0  0  0
  5 10  4  0  0  0  0
  6  7  4  0  0  0  0
  7  8  4  0  0  0  0
  8  9  4  0  0  0  0
  9 10  4  0  0  0  0
 10 11  1  0  0  0  0
 11 12  1  0  0  0  0
 12 13  1  0  0  0  0
 12 18  1  0  0  0  0
 13 14  1  0  0  0  0
 13 17  2  0  0  0  0
 14 15  1  0  0  0  0
 15 16  1  0  0  0  0
 18 19  1  0  0  0  0
 18 22  1  0  0  0  0
 19 20  1  0  0  0  0
 20 21  1  0  0  0  0
 21 22  1  0  0  0  0
M  END
>  <Name_Molregno>
489688

>  <Dopamine transporter>
5.49

>  <Norepinephrine transporter>
7.34

>  <Serotonin transporter>
6.37

$$$$
489689
  Marvin  02231216192D 0   1.00000     0.00000     0

 20 21  0  0  1  0  0  0  0  0999 V2000
   -3.6832   -1.1089    0.0000 S   0  0  0  0  0  0  0  0  0
   -4.3977   -1.5214    0.0000 C   0  0  0  0  0  0  0  0  0
   -3.6832   -0.2839    0.0000 C   0  0  0  0  0  0  0  0  0
   -4.3977    0.1286    0.0000 C   0  0  0  0  0  0  0  0  0
   -4.3977    0.9536    0.0000 C   0  0  0  0  0  0  0  0  0
   -3.6832    1.3661    0.0000 C   0  0  0  0  0  0  0  0  0
   -2.9688    0.9536    0.0000 C   0  0  0  0  0  0  0  0  0
   -2.9688    0.1286    0.0000 C   0  0  0  0  0  0  0  0  0
   -2.2543   -0.2839    0.0000 C   0  0  0  0  0  0  0  0  0
   -1.5398    0.1286    0.0000 N   0  0  0  0  0  0  0  0  0
   -0.8254   -0.2839    0.0000 C   0  0  0  0  0  0  0  0  0
   -0.1109    0.1286    0.0000 O   0  0  0  0  0  0  0  0  0
    0.6036   -0.2839    0.0000 C   0  0  0  0  0  0  0  0  0
    1.3181    0.1286    0.0000 C   0  0  0  0  0  0  0  0  0
   -0.8254   -1.1089    0.0000 O   0  0  0  0  0  0  0  0  0
   -1.5398    0.9536    0.0000 C   0  0  0  0  0  0  0  0  0
   -2.2073    1.4385    0.0000 C   0  0  0  0  0  0  0  0  0
   -1.9523    2.2231    0.0000 C   0  0  0  0  0  0  0  0  0
   -1.1273    2.2231    0.0000 N   0  0  0  0  0  0  0  0  0
   -0.8724    1.4385    0.0000 C   0  0  0  0  0  0  0  0  0
  1  2  1  0  0  0  0
  1  3  1  0  0  0  0
  3  4  4  0  0  0  0
  3  8  4  0  0  0  0
  4  5  4  0  0  0  0
  5  6  4  0  0  0  0
  6  7  4  0  0  0  0
  7  8  4  0  0  0  0
  8  9  1  0  0  0  0
  9 10  1  0  0  0  0
 10 11  1  0  0  0  0
 10 16  1  0  0  0  0
 11 12  1  0  0  0  0
 11 15  2  0  0  0  0
 12 13  1  0  0  0  0
 13 14  1  0  0  0  0
 16 17  1  0  0  0  0
 16 20  1  0  0  0  0
 17 18  1  0  0  0  0
 18 19  1  0  0  0  0
 19 20  1  0  0  0  0
M  END
>  <Name_Molregno>
489689

>  <Norepinephrine transporter>
7.05

>  <Serotonin transporter>
6.45

$$$$
489690
  Marvin  02231216192D 0   1.00000     0.00000     0

 25 27  0  0  1  0  0  0  0  0999 V2000
   -2.2753   -1.3070    0.0000 O   0  0  0  0  0  0  0  0  0
   -2.2753   -0.4820    0.0000 C   0  0  0  0  0  0  0  0  0
   -2.9898   -0.0695    0.0000 C   0  0  0  0  0  0  0  0  0
   -2.9898    0.7555    0.0000 C   0  0  0  0  0  0  0  0  0
   -2.2753    1.1680    0.0000 C   0  0  0  0  0  0  0  0  0
   -1.5609    0.7555    0.0000 C   0  0  0  0  0  0  0  0  0
   -1.5609   -0.0695    0.0000 C   0  0  0  0  0  0  0  0  0
   -0.8464   -0.4820    0.0000 C   0  0  0  0  0  0  0  0  0
   -0.1319   -0.0695    0.0000 N   0  0  0  0  0  0  0  0  0
    0.5826   -0.4820    0.0000 C   0  0  0  0  0  0  0  0  0
    1.2970   -0.0695    0.0000 O   0  0  0  0  0  0  0  0  0
    2.0115   -0.4820    0.0000 C   0  0  0  0  0  0  0  0  0
    2.7260   -0.0695    0.0000 C   0  0  0  0  0  0  0  0  0
    0.5826   -1.3070    0.0000 O   0  0  0  0  0  0  0  0  0
   -0.1319    0.7555    0.0000 C   0  0  0  0  0  0  0  0  0
   -0.7994    1.2405    0.0000 C   0  0  0  0  0  0  0  0  0
   -0.5444    2.0251    0.0000 C   0  0  0  0  0  0  0  0  0
    0.2806    2.0251    0.0000 N   0  0  0  0  0  0  0  0  0
    0.5355    1.2405    0.0000 C   0  0  0  0  0  0  0  0  0
   -2.9898   -1.7195    0.0000 C   0  0  0  0  0  0  0  0  0
   -2.9898   -2.5445    0.0000 C   0  0  0  0  0  0  0  0  0
   -3.7043   -2.9570    0.0000 C   0  0  0  0  0  0  0  0  0
   -4.4187   -2.5445    0.0000 C   0  0  0  0  0  0  0  0  0
   -4.4187   -1.7195    0.0000 C   0  0  0  0  0  0  0  0  0
   -3.7043   -1.3070    0.0000 C   0  0  0  0  0  0  0  0  0
  1  2  1  0  0  0  0
  1 20  1  0  0  0  0
  2  3  4  0  0  0  0
  2  7  4  0  0  0  0
  3  4  4  0  0  0  0
  4  5  4  0  0  0  0
  5  6  4  0  0  0  0
  6  7  4  0  0  0  0
  7  8  1  0  0  0  0
  8  9  1  0  0  0  0
  9 10  1  0  0  0  0
  9 15  1  0  0  0  0
 10 11  1  0  0  0  0
 10 14  2  0  0  0  0
 11 12  1  0  0  0  0
 12 13  1  0  0  0  0
 15 16  1  0  0  0  0
 15 19  1  0  0  0  0
 16 17  1  0  0  0  0
 17 18  1  0  0  0  0
 18 19  1  0  0  0  0
 20 21  4  0  0  0  0
 20 25  4  0  0  0  0
 21 22  4  0  0  0  0
 22 23  4  0  0  0  0
 23 24  4  0  0  0  0
 24 25  4  0  0  0  0
M  END
>  <Name_Molregno>
489690

>  <Dopamine transporter>
5.72

>  <Norepinephrine transporter>
7.64

>  <Serotonin transporter>
6.35

$$$$
489691
  Marvin  02231216192D 0   1.00000     0.00000     0

 24 26  0  0  1  0  0  0  0  0999 V2000
    0.9228   -3.7233    0.0000 O   0  0  0  0  0  0  0  0  0
    0.9228   -2.8983    0.0000 C   0  0  0  0  0  0  0  0  0
    0.2083   -2.4858    0.0000 N   0  0  0  0  0  0  0  0  0
    0.2083   -1.6608    0.0000 C   0  0  0  0  0  0  0  0  0
   -0.5061   -1.2483    0.0000 C   0  0  0  0  0  0  0  0  0
   -1.2206   -1.6608    0.0000 C   0  0  0  0  0  0  0  0  0
   -1.9351   -1.2483    0.0000 C   0  0  0  0  0  0  0  0  0
   -1.9351   -0.4233    0.0000 C   0  0  0  0  0  0  0  0  0
   -1.2206   -0.0108    0.0000 C   0  0  0  0  0  0  0  0  0
   -0.5061   -0.4233    0.0000 C   0  0  0  0  0  0  0  0  0
    0.2083   -0.0108    0.0000 C   0  0  0  0  0  0  0  0  0
    0.2083    0.8142    0.0000 C   0  0  0  0  0  0  0  0  0
    0.9228    1.2267    0.0000 C   0  0  0  0  0  0  0  0  0
    1.6373    0.8142    0.0000 C   0  0  0  0  0  0  0  0  0
    1.6373   -0.0108    0.0000 C   0  0  0  0  0  0  0  0  0
    0.9228   -0.4233    0.0000 C   0  0  0  0  0  0  0  0  0
   -0.5061   -2.8983    0.0000 C   0  0  0  0  0  0  0  0  0
   -0.5924   -3.7188    0.0000 C   0  0  0  0  0  0  0  0  0
   -1.3993   -3.8904    0.0000 C   0  0  0  0  0  0  0  0  0
   -1.8118   -3.1759    0.0000 N   0  0  0  0  0  0  0  0  0
   -1.2598   -2.5628    0.0000 C   0  0  0  0  0  0  0  0  0
    1.6373   -2.4858    0.0000 N   0  0  0  0  0  0  0  0  0
    1.6373   -1.6608    0.0000 C   0  0  0  0  0  0  0  0  0
    2.3518   -2.8983    0.0000 C   0  0  0  0  0  0  0  0  0
  1  2  2  0  0  0  0
  2  3  1  0  0  0  0
  2 22  1  0  0  0  0
  3  4  1  0  0  0  0
  3 17  1  0  0  0  0
  4  5  1  0  0  0  0
  5  6  4  0  0  0  0
  5 10  4  0  0  0  0
  6  7  4  0  0  0  0
  7  8  4  0  0  0  0
  8  9  4  0  0  0  0
  9 10  4  0  0  0  0
 10 11  1  0  0  0  0
 11 12  4  0  0  0  0
 11 16  4  0  0  0  0
 12 13  4  0  0  0  0
 13 14  4  0  0  0  0
 14 15  4  0  0  0  0
 15 16  4  0  0  0  0
 17 18  1  0  0  0  0
 17 21  1  0  0  0  0
 18 19  1  0  0  0  0
 19 20  1  0  0  0  0
 20 21  1  0  0  0  0
 22 23  1  0  0  0  0
 22 24  1  0  0  0  0
M  END
>  <Name_Molregno>
489691

>  <Dopamine transporter>
5.53

>  <Norepinephrine transporter>
7.28

>  <Serotonin transporter>
5.3

$$$$
493092
  Marvin  02231216192D 0   1.00000     0.00000     0

 27 29  0  0  0  0  0  0  0  0999 V2000
   -0.6541   -0.6623    0.0000 S   0  0  0  0  0  0  0  0  0
   -0.6541   -1.4873    0.0000 C   0  0  0  0  0  0  0  0  0
    0.0603   -1.8998    0.0000 C   0  0  0  0  0  0  0  0  0
    0.0603   -2.7248    0.0000 C   0  0  0  0  0  0  0  0  0
   -0.6541   -3.1373    0.0000 C   0  0  0  0  0  0  0  0  0
   -1.3686   -2.7248    0.0000 C   0  0  0  0  0  0  0  0  0
   -1.3686   -1.8998    0.0000 C   0  0  0  0  0  0  0  0  0
   -2.0831   -1.4873    0.0000 C   0  0  0  0  0  0  0  0  0
   -2.7975   -1.8998    0.0000 N   0  0  0  0  0  0  0  0  0
   -2.7975   -2.7248    0.0000 C   0  0  0  0  0  0  0  0  0
   -1.3686   -0.2498    0.0000 C   0  0  0  0  0  0  0  0  0
   -2.0831   -0.6623    0.0000 C   0  0  0  0  0  0  0  0  0
   -2.7975   -0.2498    0.0000 C   0  0  0  0  0  0  0  0  0
   -2.7975    0.5752    0.0000 C   0  0  0  0  0  0  0  0  0
   -2.0831    0.9877    0.0000 C   0  0  0  0  0  0  0  0  0
   -1.3686    0.5752    0.0000 C   0  0  0  0  0  0  0  0  0
   -0.6541    0.9877    0.0000 N   0  0  0  0  0  0  0  0  0
   -0.6541    1.8127    0.0000 C   0  0  0  0  0  0  0  0  0
   -1.3686    2.2252    0.0000 O   0  0  0  0  0  0  0  0  0
    0.0603    2.2252    0.0000 C   0  0  0  0  0  0  0  0  0
    0.0603    3.0502    0.0000 C   0  0  0  0  0  0  0  0  0
    0.7748    3.4627    0.0000 C   0  0  0  0  0  0  0  0  0
    1.4893    3.0502    0.0000 C   0  0  0  0  0  0  0  0  0
    2.2038    3.4627    0.0000 F   0  0  0  0  0  0  0  0  0
    1.4893    2.2252    0.0000 C   0  0  0  0  0  0  0  0  0
    0.7748    1.8127    0.0000 C   0  0  0  0  0  0  0  0  0
   -3.5120    0.9877    0.0000 C   0  0  0  0  0  0  0  0  0
  1  2  1  0  0  0  0
  1 11  1  0  0  0  0
  2  3  4  0  0  0  0
  2  7  4  0  0  0  0
  3  4  4  0  0  0  0
  4  5  4  0  0  0  0
  5  6  4  0  0  0  0
  6  7  4  0  0  0  0
  7  8  1  0  0  0  0
  8  9  1  0  0  0  0
  9 10  1  0  0  0  0
 11 12  4  0  0  0  0
 11 16  4  0  0  0  0
 12 13  4  0  0  0  0
 13 14  4  0  0  0  0
 14 15  4  0  0  0  0
 14 27  1  0  0  0  0
 15 16  4  0  0  0  0
 16 17  1  0  0  0  0
 17 18  1  0  0  0  0
 18 19  2  0  0  0  0
 18 20  1  0  0  0  0
 20 21  4  0  0  0  0
 20 26  4  0  0  0  0
 21 22  4  0  0  0  0
 22 23  4  0  0  0  0
 23 24  1  0  0  0  0
 23 25  4  0  0  0  0
 25 26  4  0  0  0  0
M  END
>  <Name_Molregno>
493092

>  <Dopamine transporter>
6

>  <Norepinephrine transporter>
5.6

$$$$
493902
  Marvin  02231216192D 0   1.00000     0.00000     0

 28 30  0  0  0  0  0  0  0  0999 V2000
   -0.4558   -1.0886    0.0000 S   0  0  0  0  0  0  0  0  0
   -0.4558   -1.9136    0.0000 C   0  0  0  0  0  0  0  0  0
    0.2587   -2.3261    0.0000 C   0  0  0  0  0  0  0  0  0
    0.2587   -3.1511    0.0000 C   0  0  0  0  0  0  0  0  0
   -0.4558   -3.5636    0.0000 C   0  0  0  0  0  0  0  0  0
   -1.1702   -3.1511    0.0000 C   0  0  0  0  0  0  0  0  0
   -1.1702   -2.3261    0.0000 C   0  0  0  0  0  0  0  0  0
   -1.8847   -1.9136    0.0000 C   0  0  0  0  0  0  0  0  0
   -2.5992   -2.3261    0.0000 N   0  0  0  0  0  0  0  0  0
   -2.5992   -3.1511    0.0000 C   0  0  0  0  0  0  0  0  0
   -3.3136   -1.9136    0.0000 C   0  0  0  0  0  0  0  0  0
   -1.1702   -0.6761    0.0000 C   0  0  0  0  0  0  0  0  0
   -1.8847   -1.0886    0.0000 C   0  0  0  0  0  0  0  0  0
   -2.5992   -0.6761    0.0000 C   0  0  0  0  0  0  0  0  0
   -2.5992    0.1489    0.0000 C   0  0  0  0  0  0  0  0  0
   -1.8847    0.5614    0.0000 C   0  0  0  0  0  0  0  0  0
   -1.1702    0.1489    0.0000 C   0  0  0  0  0  0  0  0  0
   -0.4558    0.5614    0.0000 N   0  0  0  0  0  0  0  0  0
   -0.4558    1.3864    0.0000 C   0  0  0  0  0  0  0  0  0
   -1.1702    1.7989    0.0000 O   0  0  0  0  0  0  0  0  0
    0.2587    1.7989    0.0000 C   0  0  0  0  0  0  0  0  0
    0.2587    2.6239    0.0000 C   0  0  0  0  0  0  0  0  0
    0.9732    3.0364    0.0000 C   0  0  0  0  0  0  0  0  0
    1.6877    2.6239    0.0000 C   0  0  0  0  0  0  0  0  0
    2.4021    3.0364    0.0000 F   0  0  0  0  0  0  0  0  0
    1.6877    1.7989    0.0000 C   0  0  0  0  0  0  0  0  0
    0.9732    1.3864    0.0000 C   0  0  0  0  0  0  0  0  0
   -3.3136    0.5614    0.0000 C   0  0  0  0  0  0  0  0  0
  1  2  1  0  0  0  0
  1 12  1  0  0  0  0
  2  3  4  0  0  0  0
  2  7  4  0  0  0  0
  3  4  4  0  0  0  0
  4  5  4  0  0  0  0
  5  6  4  0  0  0  0
  6  7  4  0  0  0  0
  7  8  1  0  0  0  0
  8  9  1  0  0  0  0
  9 10  1  0  0  0  0
  9 11  1  0  0  0  0
 12 13  4  0  0  0  0
 12 17  4  0  0  0  0
 13 14  4  0  0  0  0
 14 15  4  0  0  0  0
 15 16  4  0  0  0  0
 15 28  1  0  0  0  0
 16 17  4  0  0  0  0
 17 18  1  0  0  0  0
 18 19  1  0  0  0  0
 19 20  2  0  0  0  0
 19 21  1  0  0  0  0
 21 22  4  0  0  0  0
 21 27  4  0  0  0  0
 22 23  4  0  0  0  0
 23 24  4  0  0  0  0
 24 25  1  0  0  0  0
 24 26  4  0  0  0  0
 26 27  4  0  0  0  0
M  END
>  <Name_Molregno>
493902

>  <Dopamine transporter>
6

>  <Norepinephrine transporter>
5.28

$$$$
493903
  Marvin  02231216192D 0   1.00000     0.00000     0

 30 32  0  0  0  0  0  0  0  0999 V2000
   -0.9262   -1.5010    0.0000 S   0  0  0  0  0  0  0  0  0
   -0.9262   -2.3260    0.0000 C   0  0  0  0  0  0  0  0  0
   -0.2117   -2.7385    0.0000 C   0  0  0  0  0  0  0  0  0
   -0.2117   -3.5635    0.0000 C   0  0  0  0  0  0  0  0  0
   -0.9262   -3.9760    0.0000 C   0  0  0  0  0  0  0  0  0
   -1.6406   -3.5635    0.0000 C   0  0  0  0  0  0  0  0  0
   -1.6406   -2.7385    0.0000 C   0  0  0  0  0  0  0  0  0
   -2.3551   -2.3260    0.0000 C   0  0  0  0  0  0  0  0  0
   -3.0696   -2.7385    0.0000 N   0  0  0  0  0  0  0  0  0
   -3.7840   -2.3260    0.0000 C   0  0  0  0  0  0  0  0  0
   -3.0696   -3.5635    0.0000 C   0  0  0  0  0  0  0  0  0
   -1.6406   -1.0885    0.0000 C   0  0  0  0  0  0  0  0  0
   -2.3551   -1.5010    0.0000 C   0  0  0  0  0  0  0  0  0
   -3.0696   -1.0885    0.0000 C   0  0  0  0  0  0  0  0  0
   -3.0696   -0.2635    0.0000 C   0  0  0  0  0  0  0  0  0
   -2.3551    0.1490    0.0000 C   0  0  0  0  0  0  0  0  0
   -1.6406   -0.2635    0.0000 C   0  0  0  0  0  0  0  0  0
   -0.9262    0.1490    0.0000 N   0  0  0  0  0  0  0  0  0
   -0.9262    0.9740    0.0000 C   0  0  0  0  0  0  0  0  0
   -1.6406    1.3865    0.0000 O   0  0  0  0  0  0  0  0  0
   -0.2117    1.3865    0.0000 C   0  0  0  0  0  0  0  0  0
   -0.2117    2.2115    0.0000 C   0  0  0  0  0  0  0  0  0
    0.5028    2.6240    0.0000 C   0  0  0  0  0  0  0  0  0
    1.2172    2.2115    0.0000 C   0  0  0  0  0  0  0  0  0
    1.9317    2.6240    0.0000 N   0  3  0  0  0  0  0  0  0
    1.9317    3.4490    0.0000 O   0  5  0  0  0  0  0  0  0
    2.6462    2.2115    0.0000 O   0  5  0  0  0  0  0  0  0
    1.2172    1.3865    0.0000 C   0  0  0  0  0  0  0  0  0
    0.5028    0.9740    0.0000 C   0  0  0  0  0  0  0  0  0
   -3.7840    0.1490    0.0000 C   0  0  0  0  0  0  0  0  0
  1  2  1  0  0  0  0
  1 12  1  0  0  0  0
  2  3  4  0  0  0  0
  2  7  4  0  0  0  0
  3  4  4  0  0  0  0
  4  5  4  0  0  0  0
  5  6  4  0  0  0  0
  6  7  4  0  0  0  0
  7  8  1  0  0  0  0
  8  9  1  0  0  0  0
  9 10  1  0  0  0  0
  9 11  1  0  0  0  0
 12 13  4  0  0  0  0
 12 17  4  0  0  0  0
 13 14  4  0  0  0  0
 14 15  4  0  0  0  0
 15 16  4  0  0  0  0
 15 30  1  0  0  0  0
 16 17  4  0  0  0  0
 17 18  1  0  0  0  0
 18 19  1  0  0  0  0
 19 20  2  0  0  0  0
 19 21  1  0  0  0  0
 21 22  4  0  0  0  0
 21 29  4  0  0  0  0
 22 23  4  0  0  0  0
 23 24  4  0  0  0  0
 24 25  1  0  0  0  0
 24 28  4  0  0  0  0
 25 26  1  0  0  0  0
 25 27  1  0  0  0  0
 28 29  4  0  0  0  0
M  CHG  3  25   1  26  -1  27  -1
M  END
>  <Name_Molregno>
493903

>  <Dopamine transporter>
6

>  <Norepinephrine transporter>
6

$$$$
493904
  Marvin  02231216192D 0   1.00000     0.00000     0

 26 28  0  0  0  0  0  0  0  0999 V2000
   -0.6007   -0.5574    0.0000 S   0  0  0  0  0  0  0  0  0
   -0.6007   -1.3824    0.0000 C   0  0  0  0  0  0  0  0  0
    0.1138   -1.7949    0.0000 C   0  0  0  0  0  0  0  0  0
    0.1138   -2.6199    0.0000 C   0  0  0  0  0  0  0  0  0
   -0.6007   -3.0324    0.0000 C   0  0  0  0  0  0  0  0  0
   -1.3151   -2.6199    0.0000 C   0  0  0  0  0  0  0  0  0
   -1.3151   -1.7949    0.0000 C   0  0  0  0  0  0  0  0  0
   -2.0296   -1.3824    0.0000 C   0  0  0  0  0  0  0  0  0
   -2.7441   -1.7949    0.0000 N   0  0  0  0  0  0  0  0  0
   -2.7441   -2.6199    0.0000 C   0  0  0  0  0  0  0  0  0
   -1.3151   -0.1449    0.0000 C   0  0  0  0  0  0  0  0  0
   -2.0296   -0.5574    0.0000 C   0  0  0  0  0  0  0  0  0
   -2.7441   -0.1449    0.0000 C   0  0  0  0  0  0  0  0  0
   -2.7441    0.6801    0.0000 C   0  0  0  0  0  0  0  0  0
   -2.0296    1.0926    0.0000 C   0  0  0  0  0  0  0  0  0
   -1.3151    0.6801    0.0000 C   0  0  0  0  0  0  0  0  0
   -0.6007    1.0926    0.0000 N   0  0  0  0  0  0  0  0  0
   -0.6007    1.9176    0.0000 C   0  0  0  0  0  0  0  0  0
    0.1138    2.3301    0.0000 C   0  0  0  0  0  0  0  0  0
    0.1138    3.1551    0.0000 C   0  0  0  0  0  0  0  0  0
    0.8283    3.5676    0.0000 C   0  0  0  0  0  0  0  0  0
    1.5427    3.1551    0.0000 C   0  0  0  0  0  0  0  0  0
    2.2572    3.5676    0.0000 F   0  0  0  0  0  0  0  0  0
    1.5427    2.3301    0.0000 C   0  0  0  0  0  0  0  0  0
    0.8283    1.9176    0.0000 C   0  0  0  0  0  0  0  0  0
   -3.4586    1.0926    0.0000 C   0  0  0  0  0  0  0  0  0
  1  2  1  0  0  0  0
  1 11  1  0  0  0  0
  2  3  4  0  0  0  0
  2  7  4  0  0  0  0
  3  4  4  0  0  0  0
  4  5  4  0  0  0  0
  5  6  4  0  0  0  0
  6  7  4  0  0  0  0
  7  8  1  0  0  0  0
  8  9  1  0  0  0  0
  9 10  1  0  0  0  0
 11 12  4  0  0  0  0
 11 16  4  0  0  0  0
 12 13  4  0  0  0  0
 13 14  4  0  0  0  0
 14 15  4  0  0  0  0
 14 26  1  0  0  0  0
 15 16  4  0  0  0  0
 16 17  1  0  0  0  0
 17 18  1  0  0  0  0
 18 19  1  0  0  0  0
 19 20  4  0  0  0  0
 19 25  4  0  0  0  0
 20 21  4  0  0  0  0
 21 22  4  0  0  0  0
 22 23  1  0  0  0  0
 22 24  4  0  0  0  0
 24 25  4  0  0  0  0
M  END
>  <Name_Molregno>
493904

>  <Dopamine transporter>
5.7

>  <Norepinephrine transporter>
6

$$$$
493905
  Marvin  02231216192D 0   1.00000     0.00000     0

 29 31  0  0  0  0  0  0  0  0999 V2000
   -0.8825   -0.4785    0.0000 S   0  0  0  0  0  0  0  0  0
   -0.8825   -1.3035    0.0000 C   0  0  0  0  0  0  0  0  0
   -0.1680   -1.7160    0.0000 C   0  0  0  0  0  0  0  0  0
   -0.1680   -2.5410    0.0000 C   0  0  0  0  0  0  0  0  0
   -0.8825   -2.9535    0.0000 C   0  0  0  0  0  0  0  0  0
   -1.5970   -2.5410    0.0000 C   0  0  0  0  0  0  0  0  0
   -1.5970   -1.7160    0.0000 C   0  0  0  0  0  0  0  0  0
   -2.3114   -1.3035    0.0000 C   0  0  0  0  0  0  0  0  0
   -3.0259   -1.7160    0.0000 N   0  0  0  0  0  0  0  0  0
   -3.7404   -1.3035    0.0000 C   0  0  0  0  0  0  0  0  0
   -3.0259   -2.5410    0.0000 C   0  0  0  0  0  0  0  0  0
   -1.5970   -0.0660    0.0000 C   0  0  0  0  0  0  0  0  0
   -2.3114   -0.4785    0.0000 C   0  0  0  0  0  0  0  0  0
   -3.0259   -0.0660    0.0000 C   0  0  0  0  0  0  0  0  0
   -3.0259    0.7590    0.0000 C   0  0  0  0  0  0  0  0  0
   -2.3114    1.1715    0.0000 C   0  0  0  0  0  0  0  0  0
   -1.5970    0.7590    0.0000 C   0  0  0  0  0  0  0  0  0
   -0.8825    1.1715    0.0000 N   0  0  0  0  0  0  0  0  0
   -0.8825    1.9965    0.0000 C   0  0  0  0  0  0  0  0  0
   -0.1680    2.4090    0.0000 C   0  0  0  0  0  0  0  0  0
   -0.1680    3.2340    0.0000 C   0  0  0  0  0  0  0  0  0
    0.5464    3.6465    0.0000 C   0  0  0  0  0  0  0  0  0
    1.2609    3.2340    0.0000 C   0  0  0  0  0  0  0  0  0
    1.9754    3.6465    0.0000 N   0  3  0  0  0  0  0  0  0
    1.9754    4.4715    0.0000 O   0  5  0  0  0  0  0  0  0
    2.6898    3.2340    0.0000 O   0  5  0  0  0  0  0  0  0
    1.2609    2.4090    0.0000 C   0  0  0  0  0  0  0  0  0
    0.5464    1.9965    0.0000 C   0  0  0  0  0  0  0  0  0
   -3.7404    1.1715    0.0000 C   0  0  0  0  0  0  0  0  0
  1  2  1  0  0  0  0
  1 12  1  0  0  0  0
  2  3  4  0  0  0  0
  2  7  4  0  0  0  0
  3  4  4  0  0  0  0
  4  5  4  0  0  0  0
  5  6  4  0  0  0  0
  6  7  4  0  0  0  0
  7  8  1  0  0  0  0
  8  9  1  0  0  0  0
  9 10  1  0  0  0  0
  9 11  1  0  0  0  0
 12 13  4  0  0  0  0
 12 17  4  0  0  0  0
 13 14  4  0  0  0  0
 14 15  4  0  0  0  0
 15 16  4  0  0  0  0
 15 29  1  0  0  0  0
 16 17  4  0  0  0  0
 17 18  1  0  0  0  0
 18 19  1  0  0  0  0
 19 20  1  0  0  0  0
 20 21  4  0  0  0  0
 20 28  4  0  0  0  0
 21 22  4  0  0  0  0
 22 23  4  0  0  0  0
 23 24  1  0  0  0  0
 23 27  4  0  0  0  0
 24 25  1  0  0  0  0
 24 26  1  0  0  0  0
 27 28  4  0  0  0  0
M  CHG  3  24   1  25  -1  26  -1
M  END
>  <Name_Molregno>
493905

>  <Dopamine transporter>
6

>  <Norepinephrine transporter>
5.72

$$$$
493906
  Marvin  02231216192D 0   1.00000     0.00000     0

 27 29  0  0  0  0  0  0  0  0999 V2000
   -0.3987   -0.4286    0.0000 S   0  0  0  0  0  0  0  0  0
   -0.3987   -1.2536    0.0000 C   0  0  0  0  0  0  0  0  0
    0.3157   -1.6661    0.0000 C   0  0  0  0  0  0  0  0  0
    0.3157   -2.4911    0.0000 C   0  0  0  0  0  0  0  0  0
   -0.3987   -2.9036    0.0000 C   0  0  0  0  0  0  0  0  0
   -1.1132   -2.4911    0.0000 C   0  0  0  0  0  0  0  0  0
   -1.1132   -1.6661    0.0000 C   0  0  0  0  0  0  0  0  0
   -1.8277   -1.2536    0.0000 C   0  0  0  0  0  0  0  0  0
   -2.5421   -1.6661    0.0000 N   0  0  0  0  0  0  0  0  0
   -2.5421   -2.4911    0.0000 C   0  0  0  0  0  0  0  0  0
   -3.2566   -1.2536    0.0000 C   0  0  0  0  0  0  0  0  0
   -1.1132   -0.0161    0.0000 C   0  0  0  0  0  0  0  0  0
   -1.8277   -0.4286    0.0000 C   0  0  0  0  0  0  0  0  0
   -2.5421   -0.0161    0.0000 C   0  0  0  0  0  0  0  0  0
   -2.5421    0.8089    0.0000 C   0  0  0  0  0  0  0  0  0
   -1.8277    1.2214    0.0000 C   0  0  0  0  0  0  0  0  0
   -1.1132    0.8089    0.0000 C   0  0  0  0  0  0  0  0  0
   -0.3987    1.2214    0.0000 N   0  0  0  0  0  0  0  0  0
   -0.3987    2.0464    0.0000 C   0  0  0  0  0  0  0  0  0
    0.3157    2.4589    0.0000 C   0  0  0  0  0  0  0  0  0
    0.3157    3.2839    0.0000 C   0  0  0  0  0  0  0  0  0
    1.0302    3.6964    0.0000 C   0  0  0  0  0  0  0  0  0
    1.7447    3.2839    0.0000 C   0  0  0  0  0  0  0  0  0
    2.4592    3.6964    0.0000 F   0  0  0  0  0  0  0  0  0
    1.7447    2.4589    0.0000 C   0  0  0  0  0  0  0  0  0
    1.0302    2.0464    0.0000 C   0  0  0  0  0  0  0  0  0
   -3.2566    1.2214    0.0000 C   0  0  0  0  0  0  0  0  0
  1  2  1  0  0  0  0
  1 12  1  0  0  0  0
  2  3  4  0  0  0  0
  2  7  4  0  0  0  0
  3  4  4  0  0  0  0
  4  5  4  0  0  0  0
  5  6  4  0  0  0  0
  6  7  4  0  0  0  0
  7  8  1  0  0  0  0
  8  9  1  0  0  0  0
  9 10  1  0  0  0  0
  9 11  1  0  0  0  0
 12 13  4  0  0  0  0
 12 17  4  0  0  0  0
 13 14  4  0  0  0  0
 14 15  4  0  0  0  0
 15 16  4  0  0  0  0
 15 27  1  0  0  0  0
 16 17  4  0  0  0  0
 17 18  1  0  0  0  0
 18 19  1  0  0  0  0
 19 20  1  0  0  0  0
 20 21  4  0  0  0  0
 20 26  4  0  0  0  0
 21 22  4  0  0  0  0
 22 23  4  0  0  0  0
 23 24  1  0  0  0  0
 23 25  4  0  0  0  0
 25 26  4  0  0  0  0
M  END
>  <Name_Molregno>
493906

>  <Dopamine transporter>
5.82

>  <Norepinephrine transporter>
5.92

$$$$
509149
  Marvin  02231216192D 0   1.00000     0.00000     0

 25 28  0  0  0  0  0  0  0  0999 V2000
   -8.4983   -1.8880    0.0000 F   0  0  0  0  0  0  0  0  0
   -7.6913   -2.0595    0.0000 C   0  0  0  0  0  0  0  0  0
   -7.1393   -1.4464    0.0000 C   0  0  0  0  0  0  0  0  0
   -6.3323   -1.6179    0.0000 C   0  0  0  0  0  0  0  0  0
   -6.0774   -2.4025    0.0000 C   0  0  0  0  0  0  0  0  0
   -5.2524   -2.4025    0.0000 N   0  0  0  0  0  0  0  0  0
   -4.9975   -1.6179    0.0000 C   0  0  0  0  0  0  0  0  0
   -5.6649   -1.1330    0.0000 C   0  0  0  0  0  0  0  0  0
   -5.6649   -0.3080    0.0000 C   0  0  0  0  0  0  0  0  0
   -4.9504    0.1045    0.0000 C   0  0  0  0  0  0  0  0  0
   -4.9504    0.9295    0.0000 C   0  0  0  0  0  0  0  0  0
   -4.2360    1.3420    0.0000 N   0  0  0  0  0  0  0  0  0
   -4.2360    2.1670    0.0000 C   0  0  0  0  0  0  0  0  0
   -3.5215    2.5795    0.0000 C   0  0  0  0  0  0  0  0  0
   -2.8070    2.1670    0.0000 C   0  0  0  0  0  0  0  0  0
   -2.0925    2.5795    0.0000 C   0  0  0  0  0  0  0  0  0
   -1.3781    2.1670    0.0000 C   0  0  0  0  0  0  0  0  0
   -0.6636    2.5795    0.0000 O   0  0  0  0  0  0  0  0  0
   -0.6636    3.4045    0.0000 C   0  0  0  0  0  0  0  0  0
   -1.3781    1.3420    0.0000 C   0  0  0  0  0  0  0  0  0
   -2.0925    0.9295    0.0000 C   0  0  0  0  0  0  0  0  0
   -2.8070    1.3420    0.0000 C   0  0  0  0  0  0  0  0  0
   -3.5215    0.9295    0.0000 C   0  0  0  0  0  0  0  0  0
   -6.6294   -3.0156    0.0000 C   0  0  0  0  0  0  0  0  0
   -7.4364   -2.8441    0.0000 C   0  0  0  0  0  0  0  0  0
  1  2  1  0  0  0  0
  2  3  4  0  0  0  0
  2 25  4  0  0  0  0
  3  4  4  0  0  0  0
  4  5  4  0  0  0  0
  4  8  4  0  0  0  0
  5  6  4  0  0  0  0
  5 24  4  0  0  0  0
  6  7  4  0  0  0  0
  7  8  4  0  0  0  0
  8  9  1  0  0  0  0
  9 10  1  0  0  0  0
 10 11  1  0  0  0  0
 11 12  1  0  0  0  0
 12 13  1  0  0  0  0
 12 23  1  0  0  0  0
 13 14  1  0  0  0  0
 14 15  1  0  0  0  0
 15 16  4  0  0  0  0
 15 22  4  0  0  0  0
 16 17  4  0  0  0  0
 17 18  1  0  0  0  0
 17 20  4  0  0  0  0
 18 19  1  0  0  0  0
 20 21  4  0  0  0  0
 21 22  4  0  0  0  0
 22 23  1  0  0  0  0
 24 25  4  0  0  0  0
M  STY  1   1 DAT
M  SAL   1  1   6
M  SDT   1 MRV_IMPLICIT_H                                        
M  SDD   1     0.0000    0.0000    DR    ALL  0       0  
M  SED   1 IMPL_H1
M  END
>  <Name_Molregno>
509149

>  <Dopamine transporter>
5.6

>  <Norepinephrine transporter>
5.77

>  <Serotonin transporter>
8

$$$$
509150
  Marvin  02231216192D 0   1.00000     0.00000     0

 25 28  0  0  0  0  0  0  0  0999 V2000
   -3.4238    2.1284    0.0000 F   0  0  0  0  0  0  0  0  0
   -4.2307    2.2999    0.0000 C   0  0  0  0  0  0  0  0  0
   -4.7828    1.6868    0.0000 C   0  0  0  0  0  0  0  0  0
   -5.5898    1.8583    0.0000 C   0  0  0  0  0  0  0  0  0
   -5.8447    2.6429    0.0000 C   0  0  0  0  0  0  0  0  0
   -6.6697    2.6429    0.0000 N   0  0  0  0  0  0  0  0  0
   -6.9246    1.8583    0.0000 C   0  0  0  0  0  0  0  0  0
   -6.2572    1.3734    0.0000 C   0  0  0  0  0  0  0  0  0
   -6.2572    0.5484    0.0000 C   0  0  0  0  0  0  0  0  0
   -5.5427    0.1359    0.0000 C   0  0  0  0  0  0  0  0  0
   -5.5427   -0.6891    0.0000 C   0  0  0  0  0  0  0  0  0
   -4.8282   -1.1016    0.0000 N   0  0  0  0  0  0  0  0  0
   -4.8282   -1.9266    0.0000 C   0  0  0  0  0  0  0  0  0
   -4.1138   -2.3391    0.0000 C   0  0  0  0  0  0  0  0  0
   -3.3993   -1.9266    0.0000 C   0  0  0  0  0  0  0  0  0
   -3.3993   -1.1016    0.0000 C   0  0  0  0  0  0  0  0  0
   -4.1138   -0.6891    0.0000 C   0  0  0  0  0  0  0  0  0
   -2.6848   -0.6891    0.0000 C   0  0  0  0  0  0  0  0  0
   -1.9704   -1.1016    0.0000 C   0  0  0  0  0  0  0  0  0
   -1.9704   -1.9266    0.0000 C   0  0  0  0  0  0  0  0  0
   -2.6848   -2.3391    0.0000 C   0  0  0  0  0  0  0  0  0
   -2.6848   -3.1641    0.0000 O   0  0  0  0  0  0  0  0  0
   -1.9704   -3.5766    0.0000 C   0  0  0  0  0  0  0  0  0
   -5.2927    3.2560    0.0000 C   0  0  0  0  0  0  0  0  0
   -4.4857    3.0845    0.0000 C   0  0  0  0  0  0  0  0  0
  1  2  1  0  0  0  0
  2  3  4  0  0  0  0
  2 25  4  0  0  0  0
  3  4  4  0  0  0  0
  4  5  4  0  0  0  0
  4  8  4  0  0  0  0
  5  6  4  0  0  0  0
  5 24  4  0  0  0  0
  6  7  4  0  0  0  0
  7  8  4  0  0  0  0
  8  9  1  0  0  0  0
  9 10  1  0  0  0  0
 10 11  1  0  0  0  0
 11 12  1  0  0  0  0
 12 13  1  0  0  0  0
 12 17  1  0  0  0  0
 13 14  1  0  0  0  0
 14 15  1  0  0  0  0
 15 16  4  0  0  0  0
 15 21  4  0  0  0  0
 16 17  1  0  0  0  0
 16 18  4  0  0  0  0
 18 19  4  0  0  0  0
 19 20  4  0  0  0  0
 20 21  4  0  0  0  0
 21 22  1  0  0  0  0
 22 23  1  0  0  0  0
 24 25  4  0  0  0  0
M  STY  1   1 DAT
M  SAL   1  1   6
M  SDT   1 MRV_IMPLICIT_H                                        
M  SDD   1     0.0000    0.0000    DR    ALL  0       0  
M  SED   1 IMPL_H1
M  END
>  <Name_Molregno>
509150

>  <Dopamine transporter>
5.83

>  <Norepinephrine transporter>
5.54

>  <Serotonin transporter>
7.77

$$$$
509205
  Marvin  02231216192D 0   1.00000     0.00000     0

 25 28  0  0  0  0  0  0  0  0999 V2000
   -8.4983   -1.8880    0.0000 Br  0  0  0  0  0  0  0  0  0
   -7.6913   -2.0595    0.0000 C   0  0  0  0  0  0  0  0  0
   -7.1393   -1.4464    0.0000 C   0  0  0  0  0  0  0  0  0
   -6.3323   -1.6179    0.0000 C   0  0  0  0  0  0  0  0  0
   -6.0774   -2.4025    0.0000 C   0  0  0  0  0  0  0  0  0
   -5.2524   -2.4025    0.0000 N   0  0  0  0  0  0  0  0  0
   -4.9975   -1.6179    0.0000 C   0  0  0  0  0  0  0  0  0
   -5.6649   -1.1330    0.0000 C   0  0  0  0  0  0  0  0  0
   -5.6649   -0.3080    0.0000 C   0  0  0  0  0  0  0  0  0
   -4.9504    0.1045    0.0000 C   0  0  0  0  0  0  0  0  0
   -4.9504    0.9295    0.0000 C   0  0  0  0  0  0  0  0  0
   -4.2360    1.3420    0.0000 N   0  0  0  0  0  0  0  0  0
   -4.2360    2.1670    0.0000 C   0  0  0  0  0  0  0  0  0
   -3.5215    2.5795    0.0000 C   0  0  0  0  0  0  0  0  0
   -2.8070    2.1670    0.0000 C   0  0  0  0  0  0  0  0  0
   -2.0925    2.5795    0.0000 C   0  0  0  0  0  0  0  0  0
   -1.3781    2.1670    0.0000 C   0  0  0  0  0  0  0  0  0
   -0.6636    2.5795    0.0000 O   0  0  0  0  0  0  0  0  0
   -0.6636    3.4045    0.0000 C   0  0  0  0  0  0  0  0  0
   -1.3781    1.3420    0.0000 C   0  0  0  0  0  0  0  0  0
   -2.0925    0.9295    0.0000 C   0  0  0  0  0  0  0  0  0
   -2.8070    1.3420    0.0000 C   0  0  0  0  0  0  0  0  0
   -3.5215    0.9295    0.0000 C   0  0  0  0  0  0  0  0  0
   -6.6294   -3.0156    0.0000 C   0  0  0  0  0  0  0  0  0
   -7.4364   -2.8441    0.0000 C   0  0  0  0  0  0  0  0  0
  1  2  1  0  0  0  0
  2  3  4  0  0  0  0
  2 25  4  0  0  0  0
  3  4  4  0  0  0  0
  4  5  4  0  0  0  0
  4  8  4  0  0  0  0
  5  6  4  0  0  0  0
  5 24  4  0  0  0  0
  6  7  4  0  0  0  0
  7  8  4  0  0  0  0
  8  9  1  0  0  0  0
  9 10  1  0  0  0  0
 10 11  1  0  0  0  0
 11 12  1  0  0  0  0
 12 13  1  0  0  0  0
 12 23  1  0  0  0  0
 13 14  1  0  0  0  0
 14 15  1  0  0  0  0
 15 16  4  0  0  0  0
 15 22  4  0  0  0  0
 16 17  4  0  0  0  0
 17 18  1  0  0  0  0
 17 20  4  0  0  0  0
 18 19  1  0  0  0  0
 20 21  4  0  0  0  0
 21 22  4  0  0  0  0
 22 23  1  0  0  0  0
 24 25  4  0  0  0  0
M  STY  1   1 DAT
M  SAL   1  1   6
M  SDT   1 MRV_IMPLICIT_H                                        
M  SDD   1     0.0000    0.0000    DR    ALL  0       0  
M  SED   1 IMPL_H1
M  END
>  <Name_Molregno>
509205

>  <Dopamine transporter>
5.99

>  <Norepinephrine transporter>
5.56

>  <Serotonin transporter>
7.91

$$$$
509206
  Marvin  02231216192D 0   1.00000     0.00000     0

 25 28  0  0  0  0  0  0  0  0999 V2000
   -3.4238    2.1284    0.0000 Br  0  0  0  0  0  0  0  0  0
   -4.2307    2.2999    0.0000 C   0  0  0  0  0  0  0  0  0
   -4.7828    1.6868    0.0000 C   0  0  0  0  0  0  0  0  0
   -5.5898    1.8583    0.0000 C   0  0  0  0  0  0  0  0  0
   -5.8447    2.6429    0.0000 C   0  0  0  0  0  0  0  0  0
   -6.6697    2.6429    0.0000 N   0  0  0  0  0  0  0  0  0
   -6.9246    1.8583    0.0000 C   0  0  0  0  0  0  0  0  0
   -6.2572    1.3734    0.0000 C   0  0  0  0  0  0  0  0  0
   -6.2572    0.5484    0.0000 C   0  0  0  0  0  0  0  0  0
   -5.5427    0.1359    0.0000 C   0  0  0  0  0  0  0  0  0
   -5.5427   -0.6891    0.0000 C   0  0  0  0  0  0  0  0  0
   -4.8282   -1.1016    0.0000 N   0  0  0  0  0  0  0  0  0
   -4.8282   -1.9266    0.0000 C   0  0  0  0  0  0  0  0  0
   -4.1138   -2.3391    0.0000 C   0  0  0  0  0  0  0  0  0
   -3.3993   -1.9266    0.0000 C   0  0  0  0  0  0  0  0  0
   -3.3993   -1.1016    0.0000 C   0  0  0  0  0  0  0  0  0
   -4.1138   -0.6891    0.0000 C   0  0  0  0  0  0  0  0  0
   -2.6848   -0.6891    0.0000 C   0  0  0  0  0  0  0  0  0
   -1.9704   -1.1016    0.0000 C   0  0  0  0  0  0  0  0  0
   -1.9704   -1.9266    0.0000 C   0  0  0  0  0  0  0  0  0
   -2.6848   -2.3391    0.0000 C   0  0  0  0  0  0  0  0  0
   -2.6848   -3.1641    0.0000 O   0  0  0  0  0  0  0  0  0
   -1.9704   -3.5766    0.0000 C   0  0  0  0  0  0  0  0  0
   -5.2927    3.2560    0.0000 C   0  0  0  0  0  0  0  0  0
   -4.4857    3.0845    0.0000 C   0  0  0  0  0  0  0  0  0
  1  2  1  0  0  0  0
  2  3  4  0  0  0  0
  2 25  4  0  0  0  0
  3  4  4  0  0  0  0
  4  5  4  0  0  0  0
  4  8  4  0  0  0  0
  5  6  4  0  0  0  0
  5 24  4  0  0  0  0
  6  7  4  0  0  0  0
  7  8  4  0  0  0  0
  8  9  1  0  0  0  0
  9 10  1  0  0  0  0
 10 11  1  0  0  0  0
 11 12  1  0  0  0  0
 12 13  1  0  0  0  0
 12 17  1  0  0  0  0
 13 14  1  0  0  0  0
 14 15  1  0  0  0  0
 15 16  4  0  0  0  0
 15 21  4  0  0  0  0
 16 17  1  0  0  0  0
 16 18  4  0  0  0  0
 18 19  4  0  0  0  0
 19 20  4  0  0  0  0
 20 21  4  0  0  0  0
 21 22  1  0  0  0  0
 22 23  1  0  0  0  0
 24 25  4  0  0  0  0
M  STY  1   1 DAT
M  SAL   1  1   6
M  SDT   1 MRV_IMPLICIT_H                                        
M  SDD   1     0.0000    0.0000    DR    ALL  0       0  
M  SED   1 IMPL_H1
M  END
>  <Name_Molregno>
509206

>  <Dopamine transporter>
5.46

>  <Norepinephrine transporter>
5.18

>  <Serotonin transporter>
5.63

$$$$
509207
  Marvin  02231216192D 0   1.00000     0.00000     0

 25 28  0  0  0  0  0  0  0  0999 V2000
   -8.4983   -1.8880    0.0000 I   0  0  0  0  0  0  0  0  0
   -7.6913   -2.0595    0.0000 C   0  0  0  0  0  0  0  0  0
   -7.1393   -1.4464    0.0000 C   0  0  0  0  0  0  0  0  0
   -6.3323   -1.6179    0.0000 C   0  0  0  0  0  0  0  0  0
   -6.0774   -2.4025    0.0000 C   0  0  0  0  0  0  0  0  0
   -5.2524   -2.4025    0.0000 N   0  0  0  0  0  0  0  0  0
   -4.9975   -1.6179    0.0000 C   0  0  0  0  0  0  0  0  0
   -5.6649   -1.1330    0.0000 C   0  0  0  0  0  0  0  0  0
   -5.6649   -0.3080    0.0000 C   0  0  0  0  0  0  0  0  0
   -4.9504    0.1045    0.0000 C   0  0  0  0  0  0  0  0  0
   -4.9504    0.9295    0.0000 C   0  0  0  0  0  0  0  0  0
   -4.2360    1.3420    0.0000 N   0  0  0  0  0  0  0  0  0
   -4.2360    2.1670    0.0000 C   0  0  0  0  0  0  0  0  0
   -3.5215    2.5795    0.0000 C   0  0  0  0  0  0  0  0  0
   -2.8070    2.1670    0.0000 C   0  0  0  0  0  0  0  0  0
   -2.0925    2.5795    0.0000 C   0  0  0  0  0  0  0  0  0
   -1.3781    2.1670    0.0000 C   0  0  0  0  0  0  0  0  0
   -0.6636    2.5795    0.0000 O   0  0  0  0  0  0  0  0  0
   -0.6636    3.4045    0.0000 C   0  0  0  0  0  0  0  0  0
   -1.3781    1.3420    0.0000 C   0  0  0  0  0  0  0  0  0
   -2.0925    0.9295    0.0000 C   0  0  0  0  0  0  0  0  0
   -2.8070    1.3420    0.0000 C   0  0  0  0  0  0  0  0  0
   -3.5215    0.9295    0.0000 C   0  0  0  0  0  0  0  0  0
   -6.6294   -3.0156    0.0000 C   0  0  0  0  0  0  0  0  0
   -7.4364   -2.8441    0.0000 C   0  0  0  0  0  0  0  0  0
  1  2  1  0  0  0  0
  2  3  4  0  0  0  0
  2 25  4  0  0  0  0
  3  4  4  0  0  0  0
  4  5  4  0  0  0  0
  4  8  4  0  0  0  0
  5  6  4  0  0  0  0
  5 24  4  0  0  0  0
  6  7  4  0  0  0  0
  7  8  4  0  0  0  0
  8  9  1  0  0  0  0
  9 10  1  0  0  0  0
 10 11  1  0  0  0  0
 11 12  1  0  0  0  0
 12 13  1  0  0  0  0
 12 23  1  0  0  0  0
 13 14  1  0  0  0  0
 14 15  1  0  0  0  0
 15 16  4  0  0  0  0
 15 22  4  0  0  0  0
 16 17  4  0  0  0  0
 17 18  1  0  0  0  0
 17 20  4  0  0  0  0
 18 19  1  0  0  0  0
 20 21  4  0  0  0  0
 21 22  4  0  0  0  0
 22 23  1  0  0  0  0
 24 25  4  0  0  0  0
M  STY  1   1 DAT
M  SAL   1  1   6
M  SDT   1 MRV_IMPLICIT_H                                        
M  SDD   1     0.0000    0.0000    DR    ALL  0       0  
M  SED   1 IMPL_H1
M  END
>  <Name_Molregno>
509207

>  <Dopamine transporter>
5.44

>  <Norepinephrine transporter>
6.15

>  <Serotonin transporter>
6.19

$$$$
509208
  Marvin  02231216192D 0   1.00000     0.00000     0

 25 28  0  0  0  0  0  0  0  0999 V2000
   -3.4238    2.1284    0.0000 I   0  0  0  0  0  0  0  0  0
   -4.2307    2.2999    0.0000 C   0  0  0  0  0  0  0  0  0
   -4.7828    1.6868    0.0000 C   0  0  0  0  0  0  0  0  0
   -5.5898    1.8583    0.0000 C   0  0  0  0  0  0  0  0  0
   -5.8447    2.6429    0.0000 C   0  0  0  0  0  0  0  0  0
   -6.6697    2.6429    0.0000 N   0  0  0  0  0  0  0  0  0
   -6.9246    1.8583    0.0000 C   0  0  0  0  0  0  0  0  0
   -6.2572    1.3734    0.0000 C   0  0  0  0  0  0  0  0  0
   -6.2572    0.5484    0.0000 C   0  0  0  0  0  0  0  0  0
   -5.5427    0.1359    0.0000 C   0  0  0  0  0  0  0  0  0
   -5.5427   -0.6891    0.0000 C   0  0  0  0  0  0  0  0  0
   -4.8282   -1.1016    0.0000 N   0  0  0  0  0  0  0  0  0
   -4.8282   -1.9266    0.0000 C   0  0  0  0  0  0  0  0  0
   -4.1138   -2.3391    0.0000 C   0  0  0  0  0  0  0  0  0
   -3.3993   -1.9266    0.0000 C   0  0  0  0  0  0  0  0  0
   -3.3993   -1.1016    0.0000 C   0  0  0  0  0  0  0  0  0
   -4.1138   -0.6891    0.0000 C   0  0  0  0  0  0  0  0  0
   -2.6848   -0.6891    0.0000 C   0  0  0  0  0  0  0  0  0
   -1.9704   -1.1016    0.0000 C   0  0  0  0  0  0  0  0  0
   -1.9704   -1.9266    0.0000 C   0  0  0  0  0  0  0  0  0
   -2.6848   -2.3391    0.0000 C   0  0  0  0  0  0  0  0  0
   -2.6848   -3.1641    0.0000 O   0  0  0  0  0  0  0  0  0
   -1.9704   -3.5766    0.0000 C   0  0  0  0  0  0  0  0  0
   -5.2927    3.2560    0.0000 C   0  0  0  0  0  0  0  0  0
   -4.4857    3.0845    0.0000 C   0  0  0  0  0  0  0  0  0
  1  2  1  0  0  0  0
  2  3  4  0  0  0  0
  2 25  4  0  0  0  0
  3  4  4  0  0  0  0
  4  5  4  0  0  0  0
  4  8  4  0  0  0  0
  5  6  4  0  0  0  0
  5 24  4  0  0  0  0
  6  7  4  0  0  0  0
  7  8  4  0  0  0  0
  8  9  1  0  0  0  0
  9 10  1  0  0  0  0
 10 11  1  0  0  0  0
 11 12  1  0  0  0  0
 12 13  1  0  0  0  0
 12 17  1  0  0  0  0
 13 14  1  0  0  0  0
 14 15  1  0  0  0  0
 15 16  4  0  0  0  0
 15 21  4  0  0  0  0
 16 17  1  0  0  0  0
 16 18  4  0  0  0  0
 18 19  4  0  0  0  0
 19 20  4  0  0  0  0
 20 21  4  0  0  0  0
 21 22  1  0  0  0  0
 22 23  1  0  0  0  0
 24 25  4  0  0  0  0
M  STY  1   1 DAT
M  SAL   1  1   6
M  SDT   1 MRV_IMPLICIT_H                                        
M  SDD   1     0.0000    0.0000    DR    ALL  0       0  
M  SED   1 IMPL_H1
M  END
>  <Name_Molregno>
509208

>  <Dopamine transporter>
5.94

>  <Norepinephrine transporter>
5.74

>  <Serotonin transporter>
6.13

$$$$
513010
  Marvin  02231216192D 0   1.00000     0.00000     0

 22 24  0  0  1  0  0  0  0  0999 V2000
   -0.2296   -0.4433    0.0000 O   0  0  0  0  0  0  0  0  0
    0.5954   -0.4441    0.0000 C   0  0  0  0  0  0  0  0  0
    1.0086    0.2700    0.0000 O   0  0  0  0  0  0  0  0  0
    1.0072   -1.1590    0.0000 C   0  0  0  0  0  0  0  0  0
    1.8322   -1.1598    0.0000 C   0  0  0  0  0  0  0  0  0
    2.2440   -1.8747    0.0000 C   0  0  0  0  0  0  0  0  0
    1.8308   -2.5887    0.0000 C   0  0  0  0  0  0  0  0  0
    1.0058   -2.5879    0.0000 C   0  0  0  0  0  0  0  0  0
    0.5940   -1.8730    0.0000 C   0  0  0  0  0  0  0  0  0
   -0.6414    0.2716    0.0000 C   0  0  0  0  0  0  0  0  0
   -0.7796    1.0890    0.0000 C   0  0  0  0  0  0  0  0  0
   -1.7084    1.0735    0.0000 C   0  0  0  0  0  0  0  0  0
   -2.2690    1.5134    0.0000 N   0  0  0  0  0  0  0  0  0
   -2.1293    0.7003    0.0000 C   0  0  0  0  0  0  0  0  0
   -2.6492   -0.0120    0.0000 C   0  0  0  0  0  0  0  0  0
   -2.0289    0.3649    0.0000 C   0  0  0  0  0  0  0  0  0
   -1.1576    0.7003    0.0000 C   0  0  0  0  0  0  0  0  0
   -1.4378   -0.0757    0.0000 C   0  0  0  0  0  0  0  0  0
   -2.2499   -0.2210    0.0000 O   0  0  0  0  0  0  0  0  0
   -2.5301   -0.9969    0.0000 C   0  0  0  0  0  0  0  0  0
   -0.9059   -0.7063    0.0000 O   0  0  0  0  0  0  0  0  0
   -2.6916    2.2219    0.0000 C   0  0  0  0  0  0  0  0  0
  1  2  1  0  0  0  0
  1 10  1  0  0  0  0
  2  3  2  0  0  0  0
  2  4  1  0  0  0  0
  4  5  4  0  0  0  0
  4  9  4  0  0  0  0
  5  6  4  0  0  0  0
  6  7  4  0  0  0  0
  7  8  4  0  0  0  0
  8  9  4  0  0  0  0
 10 11  1  0  0  0  0
 10 17  1  0  0  0  0
 11 12  1  0  0  0  0
 12 13  1  0  0  0  0
 12 16  1  0  0  0  0
 13 14  1  0  0  0  0
 13 22  1  0  0  0  0
 14 15  1  0  0  0  0
 14 17  1  0  0  0  0
 15 16  1  0  0  0  0
 17 18  1  0  0  0  0
 18 19  1  0  0  0  0
 18 21  2  0  0  0  0
 19 20  1  0  0  0  0
M  END
>  <Name_Molregno>
513010

>  <5-HT1A>
5

>  <5-HT1B>
5.47

>  <5-HT1D>
5

>  <5-HT1E>
5

>  <5-HT3>
5.31

>  <5-HT5>
5

>  <5-HT6>
5

>  <5-HT7>
5

>  <Alpha-1A>
5.68

>  <Alpha-1B>
5

>  <Alpha-2A>
5

>  <Alpha-2C>
5

>  <Beta-1>
5

>  <Beta-2>
5

>  <DOPAMINE D1>
5

>  <DOPAMINE D2>
5

>  <DOPAMINE D4>
5

>  <DOPAMINE D5>
5

>  <Dopamine transporter>
6.67

>  <HISTAMINE H1>
5.67

>  <HISTAMINE H2>
5

>  <HISTAMINE H4>
5

>  <Muscarinic acetylcholine receptor M1>
5

>  <Muscarinic acetylcholine receptor M2>
5

>  <Muscarinic acetylcholine receptor M3>
5

>  <Muscarinic acetylcholine receptor M4>
5

>  <Muscarinic acetylcholine receptor M5>
5

>  <Norepinephrine transporter>
5.76

>  <Serotonin transporter>
6.68

$$$$
515852
  Marvin  02231216192D 0   1.00000     0.00000     0

 24 28  0  0  1  0  0  0  0  0999 V2000
    3.5696   -0.3324    0.0000 O   0  0  0  0  0  0  0  0  0
    3.9434   -1.0678    0.0000 C   0  0  0  0  0  0  0  0  0
    3.3594   -1.6506    0.0000 C   0  0  0  0  0  0  0  0  0
    2.6247   -1.2753    0.0000 C   0  0  0  0  0  0  0  0  0
    2.7546   -0.4606    0.0000 C   0  0  0  0  0  0  0  0  0
    2.1140    0.0593    0.0000 C   0  0  0  0  0  0  0  0  0
    1.3435   -0.2355    0.0000 C   0  0  0  0  0  0  0  0  0
    1.2136   -1.0502    0.0000 C   0  0  0  0  0  0  0  0  0
    1.8542   -1.5701    0.0000 C   0  0  0  0  0  0  0  0  0
    1.7243   -2.3848    0.0000 N   0  0  0  0  0  0  0  0  0
    0.9537   -2.6797    0.0000 C   0  0  0  0  0  0  0  0  0
    0.3131   -2.1598    0.0000 N   0  0  0  0  0  0  0  0  0
    0.4431   -1.3451    0.0000 C   0  0  0  0  0  0  0  0  0
   -0.1975   -0.8252    0.0000 N   0  0  0  0  0  0  0  0  0
   -0.9680   -1.1201    0.0000 C   0  0  0  0  0  0  0  0  0
   -1.6086   -0.6002    0.0000 C   0  0  0  0  0  0  0  0  0
   -1.4787    0.2145    0.0000 N   0  0  0  0  0  0  0  0  0
   -0.7082    0.5094    0.0000 C   0  0  0  0  0  0  0  0  0
   -0.0676   -0.0105    0.0000 C   0  0  0  0  0  0  0  0  0
    0.8238   -3.4944    0.0000 N   0  0  0  0  0  0  0  0  0
    3.5721   -2.4477    0.0000 C   0  0  0  0  0  0  0  0  0
    4.3687   -2.6621    0.0000 C   0  0  0  0  0  0  0  0  0
    4.9527   -2.0793    0.0000 C   0  0  0  0  0  0  0  0  0
    4.7400   -1.2822    0.0000 C   0  0  0  0  0  0  0  0  0
  1  2  1  0  0  0  0
  1  5  1  0  0  0  0
  2  3  1  0  0  0  0
  2 24  1  0  0  0  0
  3  4  1  0  0  0  0
  3 21  1  0  0  0  0
  4  5  2  0  0  0  0
  4  9  1  0  0  0  0
  5  6  1  0  0  0  0
  6  7  1  0  0  0  0
  7  8  1  0  0  0  0
  8  9  4  0  0  0  0
  8 13  4  0  0  0  0
  9 10  4  0  0  0  0
 10 11  4  0  0  0  0
 11 12  4  0  0  0  0
 11 20  1  0  0  0  0
 12 13  4  0  0  0  0
 13 14  1  0  0  0  0
 14 15  1  0  0  0  0
 14 19  1  0  0  0  0
 15 16  1  0  0  0  0
 16 17  1  0  0  0  0
 17 18  1  0  0  0  0
 18 19  1  0  0  0  0
 21 22  1  0  0  0  0
 22 23  1  0  0  0  0
 23 24  1  0  0  0  0
M  END
>  <Name_Molregno>
515852

>  <5-HT1A>
9.18

>  <5-HT1B>
7.74

>  <5-HT2A>
8.89

>  <5-HT2C>
8.41

>  <5-HT3>
8.18

>  <5-HT5>
6.96

>  <5-HT6>
7.03

>  <5-HT7>
9.66

>  <Beta-1>
6.37

>  <Beta-2>
9.3

>  <DOPAMINE D1>
9.42

>  <DOPAMINE D2>
8.54

>  <DOPAMINE D3>
8.85

>  <DOPAMINE D5>
9.32

>  <Dopamine transporter>
8.05

>  <HISTAMINE H1>
7.05

>  <HISTAMINE H2>
5.91

>  <HISTAMINE H3>
6.03

>  <HISTAMINE H4>
8.24

>  <Muscarinic acetylcholine receptor M1>
7.6

>  <Muscarinic acetylcholine receptor M2>
7.44

>  <Muscarinic acetylcholine receptor M3>
9.38

>  <Muscarinic acetylcholine receptor M4>
9.18

>  <Muscarinic acetylcholine receptor M5>
9.38

>  <Norepinephrine transporter>
8.17

>  <Serotonin transporter>
8.49

$$$$
518133
  Marvin  02231216192D 0   1.00000     0.00000     0

 13 14  0  0  1  0  0  0  0  0999 V2000
   -0.5084    0.2748    0.0000 O   0  0  0  0  0  0  0  0  0
   -0.7633   -0.5098    0.0000 C   0  0  0  0  0  0  0  0  0
   -1.5883   -0.5098    0.0000 C   0  0  0  0  0  0  0  0  0
   -1.8432    0.2748    0.0000 C   0  0  0  0  0  0  0  0  0
   -1.1758    0.7597    0.0000 C   0  0  0  0  0  0  0  0  0
   -1.1758    1.5847    0.0000 C   0  0  0  0  0  0  0  0  0
   -1.8903    1.9972    0.0000 N   0  0  0  0  0  0  0  0  0
   -0.2784   -1.1773    0.0000 C   0  0  0  0  0  0  0  0  0
    0.5421   -1.0910    0.0000 C   0  0  0  0  0  0  0  0  0
    1.0270   -1.7585    0.0000 C   0  0  0  0  0  0  0  0  0
    0.6915   -2.5122    0.0000 C   0  0  0  0  0  0  0  0  0
   -0.1290   -2.5984    0.0000 C   0  0  0  0  0  0  0  0  0
   -0.6139   -1.9310    0.0000 C   0  0  0  0  0  0  0  0  0
  1  2  1  0  0  0  0
  1  5  1  0  0  0  0
  2  3  1  0  0  0  0
  2  8  1  0  0  0  0
  3  4  1  0  0  0  0
  4  5  1  0  0  0  0
  5  6  1  0  0  0  0
  6  7  1  0  0  0  0
  8  9  4  0  0  0  0
  8 13  4  0  0  0  0
  9 10  4  0  0  0  0
 10 11  4  0  0  0  0
 11 12  4  0  0  0  0
 12 13  4  0  0  0  0
M  END
>  <Name_Molregno>
518133

>  <Dopamine transporter>
6.04

>  <Norepinephrine transporter>
5.56

>  <Serotonin transporter>
7.37

$$$$
518134
  Marvin  02231216192D 0   1.00000     0.00000     0

 14 15  0  0  1  0  0  0  0  0999 V2000
    2.6713    3.0586    0.0000 Cl  0  0  0  0  0  0  0  0  0
    2.6713    2.2336    0.0000 C   0  0  0  0  0  0  0  0  0
    3.3858    1.8211    0.0000 C   0  0  0  0  0  0  0  0  0
    3.3858    0.9961    0.0000 C   0  0  0  0  0  0  0  0  0
    2.6713    0.5836    0.0000 C   0  0  0  0  0  0  0  0  0
    1.9569    0.9961    0.0000 C   0  0  0  0  0  0  0  0  0
    1.9569    1.8211    0.0000 C   0  0  0  0  0  0  0  0  0
    2.6713   -0.2414    0.0000 C   0  0  0  0  0  0  0  0  0
    3.3388   -0.7264    0.0000 O   0  0  0  0  0  0  0  0  0
    3.0838   -1.5110    0.0000 C   0  0  0  0  0  0  0  0  0
    2.2588   -1.5110    0.0000 C   0  0  0  0  0  0  0  0  0
    2.0039   -0.7264    0.0000 C   0  0  0  0  0  0  0  0  0
    3.5688   -2.1784    0.0000 C   0  0  0  0  0  0  0  0  0
    4.3892   -2.0922    0.0000 N   0  0  0  0  0  0  0  0  0
  1  2  1  0  0  0  0
  2  3  4  0  0  0  0
  2  7  4  0  0  0  0
  3  4  4  0  0  0  0
  4  5  4  0  0  0  0
  5  6  4  0  0  0  0
  5  8  1  0  0  0  0
  6  7  4  0  0  0  0
  8  9  1  0  0  0  0
  8 12  1  0  0  0  0
  9 10  1  0  0  0  0
 10 11  1  0  0  0  0
 10 13  1  0  0  0  0
 11 12  1  0  0  0  0
 13 14  1  0  0  0  0
M  END
>  <Name_Molregno>
518134

>  <Dopamine transporter>
5.17

>  <Norepinephrine transporter>
5.96

>  <Serotonin transporter>
5.96

$$$$
518199
  Marvin  02231216192D 0   1.00000     0.00000     0

 14 15  0  0  1  0  0  0  0  0999 V2000
    2.6713    3.0586    0.0000 Br  0  0  0  0  0  0  0  0  0
    2.6713    2.2336    0.0000 C   0  0  0  0  0  0  0  0  0
    3.3858    1.8211    0.0000 C   0  0  0  0  0  0  0  0  0
    3.3858    0.9961    0.0000 C   0  0  0  0  0  0  0  0  0
    2.6713    0.5836    0.0000 C   0  0  0  0  0  0  0  0  0
    1.9569    0.9961    0.0000 C   0  0  0  0  0  0  0  0  0
    1.9569    1.8211    0.0000 C   0  0  0  0  0  0  0  0  0
    2.6713   -0.2414    0.0000 C   0  0  0  0  0  0  0  0  0
    3.3388   -0.7264    0.0000 O   0  0  0  0  0  0  0  0  0
    3.0838   -1.5110    0.0000 C   0  0  0  0  0  0  0  0  0
    2.2588   -1.5110    0.0000 C   0  0  0  0  0  0  0  0  0
    2.0039   -0.7264    0.0000 C   0  0  0  0  0  0  0  0  0
    3.5688   -2.1784    0.0000 C   0  0  0  0  0  0  0  0  0
    4.3892   -2.0922    0.0000 N   0  0  0  0  0  0  0  0  0
  1  2  1  0  0  0  0
  2  3  4  0  0  0  0
  2  7  4  0  0  0  0
  3  4  4  0  0  0  0
  4  5  4  0  0  0  0
  5  6  4  0  0  0  0
  5  8  1  0  0  0  0
  6  7  4  0  0  0  0
  8  9  1  0  0  0  0
  8 12  1  0  0  0  0
  9 10  1  0  0  0  0
 10 11  1  0  0  0  0
 10 13  1  0  0  0  0
 11 12  1  0  0  0  0
 13 14  1  0  0  0  0
M  END
>  <Name_Molregno>
518199

>  <Dopamine transporter>
5.21

>  <Norepinephrine transporter>
5

>  <Serotonin transporter>
5.95

$$$$
518200
  Marvin  02231216192D 0   1.00000     0.00000     0

 15 16  0  0  1  0  0  0  0  0999 V2000
   -1.3175    0.7109    0.0000 O   0  0  0  0  0  0  0  0  0
   -1.5725   -0.0737    0.0000 C   0  0  0  0  0  0  0  0  0
   -2.3975   -0.0737    0.0000 C   0  0  0  0  0  0  0  0  0
   -2.6524    0.7109    0.0000 C   0  0  0  0  0  0  0  0  0
   -1.9850    1.1959    0.0000 C   0  0  0  0  0  0  0  0  0
   -1.9850    2.0209    0.0000 C   0  0  0  0  0  0  0  0  0
   -2.6994    2.4334    0.0000 N   0  0  0  0  0  0  0  0  0
   -1.0875   -0.7411    0.0000 C   0  0  0  0  0  0  0  0  0
   -0.2670   -0.6549    0.0000 C   0  0  0  0  0  0  0  0  0
    0.2179   -1.3223    0.0000 C   0  0  0  0  0  0  0  0  0
   -0.1177   -2.0760    0.0000 C   0  0  0  0  0  0  0  0  0
    0.3672   -2.7434    0.0000 O   0  0  0  0  0  0  0  0  0
    1.1877   -2.6572    0.0000 C   0  0  0  0  0  0  0  0  0
   -0.9382   -2.1622    0.0000 C   0  0  0  0  0  0  0  0  0
   -1.4231   -1.4948    0.0000 C   0  0  0  0  0  0  0  0  0
  1  2  1  0  0  0  0
  1  5  1  0  0  0  0
  2  3  1  0  0  0  0
  2  8  1  0  0  0  0
  3  4  1  0  0  0  0
  4  5  1  0  0  0  0
  5  6  1  0  0  0  0
  6  7  1  0  0  0  0
  8  9  4  0  0  0  0
  8 15  4  0  0  0  0
  9 10  4  0  0  0  0
 10 11  4  0  0  0  0
 11 12  1  0  0  0  0
 11 14  4  0  0  0  0
 12 13  1  0  0  0  0
 14 15  4  0  0  0  0
M  END
>  <Name_Molregno>
518200

>  <Dopamine transporter>
5

>  <Norepinephrine transporter>
5.7

>  <Serotonin transporter>
5.16

$$$$
518201
  Marvin  02231216192D 0   1.00000     0.00000     0

 17 18  0  0  1  0  0  0  0  0999 V2000
   -1.7079    0.8524    0.0000 O   0  0  0  0  0  0  0  0  0
   -1.9629    0.0678    0.0000 C   0  0  0  0  0  0  0  0  0
   -2.7879    0.0678    0.0000 C   0  0  0  0  0  0  0  0  0
   -3.0428    0.8524    0.0000 C   0  0  0  0  0  0  0  0  0
   -2.3754    1.3373    0.0000 C   0  0  0  0  0  0  0  0  0
   -2.3754    2.1623    0.0000 C   0  0  0  0  0  0  0  0  0
   -3.0898    2.5748    0.0000 N   0  0  0  0  0  0  0  0  0
   -1.4779   -0.5997    0.0000 C   0  0  0  0  0  0  0  0  0
   -0.6574   -0.5135    0.0000 C   0  0  0  0  0  0  0  0  0
   -0.1725   -1.1809    0.0000 C   0  0  0  0  0  0  0  0  0
   -0.5081   -1.9346    0.0000 C   0  0  0  0  0  0  0  0  0
   -1.3286   -2.0208    0.0000 C   0  0  0  0  0  0  0  0  0
   -1.8135   -1.3534    0.0000 C   0  0  0  0  0  0  0  0  0
   -0.0232   -2.6020    0.0000 C   0  0  0  0  0  0  0  0  0
    0.4618   -3.2694    0.0000 C   0  0  0  0  0  0  0  0  0
   -0.6906   -3.0869    0.0000 C   0  0  0  0  0  0  0  0  0
    0.6443   -2.1171    0.0000 C   0  0  0  0  0  0  0  0  0
  1  2  1  0  0  0  0
  1  5  1  0  0  0  0
  2  3  1  0  0  0  0
  2  8  1  0  0  0  0
  3  4  1  0  0  0  0
  4  5  1  0  0  0  0
  5  6  1  0  0  0  0
  6  7  1  0  0  0  0
  8  9  4  0  0  0  0
  8 13  4  0  0  0  0
  9 10  4  0  0  0  0
 10 11  4  0  0  0  0
 11 12  4  0  0  0  0
 11 14  1  0  0  0  0
 12 13  4  0  0  0  0
 14 15  1  0  0  0  0
 14 16  1  0  0  0  0
 14 17  1  0  0  0  0
M  END
>  <Name_Molregno>
518201

>  <Dopamine transporter>
5

>  <Norepinephrine transporter>
5.34

>  <Serotonin transporter>
5

$$$$
518202
  Marvin  02231216192D 0   1.00000     0.00000     0

 17 19  0  0  1  0  0  0  0  0999 V2000
   -2.9980   -0.4581    0.0000 O   0  0  0  0  0  0  0  0  0
   -2.2444   -0.7937    0.0000 C   0  0  0  0  0  0  0  0  0
   -2.3306   -1.6142    0.0000 C   0  0  0  0  0  0  0  0  0
   -3.1376   -1.7857    0.0000 C   0  0  0  0  0  0  0  0  0
   -3.5501   -1.0712    0.0000 C   0  0  0  0  0  0  0  0  0
   -4.3705   -0.9850    0.0000 C   0  0  0  0  0  0  0  0  0
   -4.8555   -1.6524    0.0000 N   0  0  0  0  0  0  0  0  0
   -1.5299   -0.3812    0.0000 C   0  0  0  0  0  0  0  0  0
   -0.8154   -0.7937    0.0000 C   0  0  0  0  0  0  0  0  0
   -0.1009   -0.3812    0.0000 C   0  0  0  0  0  0  0  0  0
   -0.1009    0.4438    0.0000 C   0  0  0  0  0  0  0  0  0
   -0.8154    0.8563    0.0000 C   0  0  0  0  0  0  0  0  0
   -1.5299    0.4438    0.0000 C   0  0  0  0  0  0  0  0  0
    0.6135    0.8563    0.0000 C   0  0  0  0  0  0  0  0  0
    1.3280    0.4438    0.0000 C   0  0  0  0  0  0  0  0  0
    1.3280   -0.3812    0.0000 C   0  0  0  0  0  0  0  0  0
    0.6135   -0.7937    0.0000 C   0  0  0  0  0  0  0  0  0
  1  2  1  0  0  0  0
  1  5  1  0  0  0  0
  2  3  1  0  0  0  0
  2  8  1  0  0  0  0
  3  4  1  0  0  0  0
  4  5  1  0  0  0  0
  5  6  1  0  0  0  0
  6  7  1  0  0  0  0
  8  9  4  0  0  0  0
  8 13  4  0  0  0  0
  9 10  4  0  0  0  0
 10 11  4  0  0  0  0
 10 17  4  0  0  0  0
 11 12  4  0  0  0  0
 11 14  4  0  0  0  0
 12 13  4  0  0  0  0
 14 15  4  0  0  0  0
 15 16  4  0  0  0  0
 16 17  4  0  0  0  0
M  END
>  <Name_Molregno>
518202

>  <Dopamine transporter>
6.29

>  <Norepinephrine transporter>
5

>  <Serotonin transporter>
7.35

$$$$
518203
  Marvin  02231216192D 0   1.00000     0.00000     0

 17 19  0  0  1  0  0  0  0  0999 V2000
   -1.9321   -1.9730    0.0000 O   0  0  0  0  0  0  0  0  0
   -1.2647   -1.4881    0.0000 C   0  0  0  0  0  0  0  0  0
   -0.5972   -1.9730    0.0000 C   0  0  0  0  0  0  0  0  0
   -0.8522   -2.7576    0.0000 C   0  0  0  0  0  0  0  0  0
   -1.6772   -2.7576    0.0000 C   0  0  0  0  0  0  0  0  0
   -2.1621   -3.4251    0.0000 C   0  0  0  0  0  0  0  0  0
   -1.8265   -4.1787    0.0000 N   0  0  0  0  0  0  0  0  0
   -1.2647   -0.6631    0.0000 C   0  0  0  0  0  0  0  0  0
   -0.5502   -0.2506    0.0000 C   0  0  0  0  0  0  0  0  0
   -0.5502    0.5744    0.0000 C   0  0  0  0  0  0  0  0  0
   -1.2647    0.9869    0.0000 C   0  0  0  0  0  0  0  0  0
   -1.9791    0.5744    0.0000 C   0  0  0  0  0  0  0  0  0
   -1.9791   -0.2506    0.0000 C   0  0  0  0  0  0  0  0  0
    0.1643    0.9869    0.0000 C   0  0  0  0  0  0  0  0  0
    0.8788    0.5744    0.0000 C   0  0  0  0  0  0  0  0  0
    0.8788   -0.2506    0.0000 C   0  0  0  0  0  0  0  0  0
    0.1643   -0.6631    0.0000 C   0  0  0  0  0  0  0  0  0
  1  2  1  0  0  0  0
  1  5  1  0  0  0  0
  2  3  1  0  0  0  0
  2  8  1  0  0  0  0
  3  4  1  0  0  0  0
  4  5  1  0  0  0  0
  5  6  1  0  0  0  0
  6  7  1  0  0  0  0
  8  9  4  0  0  0  0
  8 13  4  0  0  0  0
  9 10  4  0  0  0  0
  9 17  4  0  0  0  0
 10 11  4  0  0  0  0
 10 14  4  0  0  0  0
 11 12  4  0  0  0  0
 12 13  4  0  0  0  0
 14 15  4  0  0  0  0
 15 16  4  0  0  0  0
 16 17  4  0  0  0  0
M  END
>  <Name_Molregno>
518203

>  <Dopamine transporter>
5.07

>  <Norepinephrine transporter>
5.83

>  <Serotonin transporter>
6.76

$$$$
518204
  Marvin  02231216192D 0   1.00000     0.00000     0

 15 16  0  0  1  0  0  0  0  0999 V2000
   -2.0122    0.9443    0.0000 O   0  0  0  0  0  0  0  0  0
   -2.2671    0.1597    0.0000 C   0  0  0  0  0  0  0  0  0
   -3.0921    0.1597    0.0000 C   0  0  0  0  0  0  0  0  0
   -3.3471    0.9443    0.0000 C   0  0  0  0  0  0  0  0  0
   -2.6796    1.4292    0.0000 C   0  0  0  0  0  0  0  0  0
   -2.6796    2.2542    0.0000 C   0  0  0  0  0  0  0  0  0
   -3.3941    2.6667    0.0000 N   0  0  0  0  0  0  0  0  0
   -1.7822   -0.5078    0.0000 C   0  0  0  0  0  0  0  0  0
   -0.9617   -0.4215    0.0000 C   0  0  0  0  0  0  0  0  0
   -0.4768   -1.0890    0.0000 C   0  0  0  0  0  0  0  0  0
    0.3437   -1.0027    0.0000 C   0  0  0  0  0  0  0  0  0
    0.8286   -1.6702    0.0000 C   0  0  0  0  0  0  0  0  0
    0.4930   -2.4238    0.0000 C   0  0  0  0  0  0  0  0  0
   -0.3275   -2.5101    0.0000 C   0  0  0  0  0  0  0  0  0
   -0.8124   -1.8426    0.0000 C   0  0  0  0  0  0  0  0  0
  1  2  1  0  0  0  0
  1  5  1  0  0  0  0
  2  3  1  0  0  0  0
  2  8  1  0  0  0  0
  3  4  1  0  0  0  0
  4  5  1  0  0  0  0
  5  6  1  0  0  0  0
  6  7  1  0  0  0  0
  8  9  1  0  0  0  0
  9 10  1  0  0  0  0
 10 11  4  0  0  0  0
 10 15  4  0  0  0  0
 11 12  4  0  0  0  0
 12 13  4  0  0  0  0
 13 14  4  0  0  0  0
 14 15  4  0  0  0  0
M  END
>  <Name_Molregno>
518204

>  <Dopamine transporter>
5.82

>  <Norepinephrine transporter>
5.56

>  <Serotonin transporter>
7.17

$$$$
518205
  Marvin  02231216192D 0   1.00000     0.00000     0

 19 21  0  0  1  0  0  0  0  0999 V2000
   -3.4669   -2.0686    0.0000 O   0  0  0  0  0  0  0  0  0
   -2.7995   -1.5837    0.0000 C   0  0  0  0  0  0  0  0  0
   -2.1321   -2.0686    0.0000 C   0  0  0  0  0  0  0  0  0
   -2.3870   -2.8532    0.0000 C   0  0  0  0  0  0  0  0  0
   -3.2120   -2.8532    0.0000 C   0  0  0  0  0  0  0  0  0
   -3.6969   -3.5207    0.0000 C   0  0  0  0  0  0  0  0  0
   -3.3614   -4.2743    0.0000 N   0  0  0  0  0  0  0  0  0
   -2.7995   -0.7587    0.0000 C   0  0  0  0  0  0  0  0  0
   -2.0850   -0.3462    0.0000 C   0  0  0  0  0  0  0  0  0
   -2.0850    0.4788    0.0000 C   0  0  0  0  0  0  0  0  0
   -1.3706    0.8913    0.0000 C   0  0  0  0  0  0  0  0  0
   -1.3706    1.7163    0.0000 C   0  0  0  0  0  0  0  0  0
   -2.0850    2.1288    0.0000 C   0  0  0  0  0  0  0  0  0
   -2.7995    1.7163    0.0000 C   0  0  0  0  0  0  0  0  0
   -2.7995    0.8913    0.0000 C   0  0  0  0  0  0  0  0  0
   -0.6561    2.1288    0.0000 C   0  0  0  0  0  0  0  0  0
    0.0584    1.7163    0.0000 C   0  0  0  0  0  0  0  0  0
    0.0584    0.8913    0.0000 C   0  0  0  0  0  0  0  0  0
   -0.6561    0.4788    0.0000 C   0  0  0  0  0  0  0  0  0
  1  2  1  0  0  0  0
  1  5  1  0  0  0  0
  2  3  1  0  0  0  0
  2  8  1  0  0  0  0
  3  4  1  0  0  0  0
  4  5  1  0  0  0  0
  5  6  1  0  0  0  0
  6  7  1  0  0  0  0
  8  9  1  0  0  0  0
  9 10  1  0  0  0  0
 10 11  4  0  0  0  0
 10 15  4  0  0  0  0
 11 12  4  0  0  0  0
 11 19  4  0  0  0  0
 12 13  4  0  0  0  0
 12 16  4  0  0  0  0
 13 14  4  0  0  0  0
 14 15  4  0  0  0  0
 16 17  4  0  0  0  0
 17 18  4  0  0  0  0
 18 19  4  0  0  0  0
M  END
>  <Name_Molregno>
518205

>  <Dopamine transporter>
5

>  <Norepinephrine transporter>
5

>  <Serotonin transporter>
7.74

$$$$
518206
  Marvin  02231216192D 0   1.00000     0.00000     0

 20 21  0  0  1  0  0  0  0  0999 V2000
    1.7611   -1.0403    0.0000 F   0  0  0  0  0  0  0  0  0
    1.0467   -0.6278    0.0000 C   0  0  0  0  0  0  0  0  0
    0.3322   -1.0403    0.0000 C   0  0  0  0  0  0  0  0  0
    0.3322   -1.8653    0.0000 C   0  0  0  0  0  0  0  0  0
    1.0467   -2.2778    0.0000 C   0  0  0  0  0  0  0  0  0
    1.0467   -3.1028    0.0000 C   0  0  0  0  0  0  0  0  0
    1.7141   -3.5878    0.0000 O   0  0  0  0  0  0  0  0  0
    1.4592   -4.3724    0.0000 C   0  0  0  0  0  0  0  0  0
    0.6342   -4.3724    0.0000 C   0  0  0  0  0  0  0  0  0
    0.3792   -3.5878    0.0000 C   0  0  0  0  0  0  0  0  0
    1.9441   -5.0398    0.0000 C   0  0  0  0  0  0  0  0  0
    1.6085   -5.7935    0.0000 N   0  0  0  0  0  0  0  0  0
   -0.3823   -0.6278    0.0000 C   0  0  0  0  0  0  0  0  0
   -1.0968   -1.0403    0.0000 F   0  0  0  0  0  0  0  0  0
   -0.3823    0.1972    0.0000 C   0  0  0  0  0  0  0  0  0
   -1.0968    0.6097    0.0000 F   0  0  0  0  0  0  0  0  0
    0.3322    0.6097    0.0000 C   0  0  0  0  0  0  0  0  0
    0.3322    1.4347    0.0000 F   0  0  0  0  0  0  0  0  0
    1.0467    0.1972    0.0000 C   0  0  0  0  0  0  0  0  0
    1.7611    0.6097    0.0000 F   0  0  0  0  0  0  0  0  0
  1  2  1  0  0  0  0
  2  3  4  0  0  0  0
  2 19  4  0  0  0  0
  3  4  1  0  0  0  0
  3 13  4  0  0  0  0
  4  5  1  0  0  0  0
  5  6  1  0  0  0  0
  6  7  1  0  0  0  0
  6 10  1  0  0  0  0
  7  8  1  0  0  0  0
  8  9  1  0  0  0  0
  8 11  1  0  0  0  0
  9 10  1  0  0  0  0
 11 12  1  0  0  0  0
 13 14  1  0  0  0  0
 13 15  4  0  0  0  0
 15 16  1  0  0  0  0
 15 17  4  0  0  0  0
 17 18  1  0  0  0  0
 17 19  4  0  0  0  0
 19 20  1  0  0  0  0
M  END
>  <Name_Molregno>
518206

>  <Dopamine transporter>
5

>  <Norepinephrine transporter>
6.2

>  <Serotonin transporter>
5.67

$$$$
518279
  Marvin  02231216192D 0   1.00000     0.00000     0

 15 16  0  0  1  0  0  0  0  0999 V2000
   -2.0122    0.9443    0.0000 O   0  0  0  0  0  0  0  0  0
   -2.2671    0.1597    0.0000 C   0  0  0  0  0  0  0  0  0
   -3.0921    0.1597    0.0000 C   0  0  0  0  0  0  0  0  0
   -3.3471    0.9443    0.0000 C   0  0  0  0  0  0  0  0  0
   -2.6796    1.4292    0.0000 C   0  0  0  0  0  0  0  0  0
   -2.6796    2.2542    0.0000 C   0  0  0  0  0  0  0  0  0
   -3.3941    2.6667    0.0000 N   0  0  0  0  0  0  0  0  0
   -1.7822   -0.5078    0.0000 C   0  0  0  0  0  0  0  0  0
   -0.9617   -0.4215    0.0000 C   0  0  0  0  0  0  0  0  0
   -0.4768   -1.0890    0.0000 C   0  0  0  0  0  0  0  0  0
    0.3437   -1.0027    0.0000 C   0  0  0  0  0  0  0  0  0
    0.8286   -1.6702    0.0000 C   0  0  0  0  0  0  0  0  0
    0.4930   -2.4238    0.0000 C   0  0  0  0  0  0  0  0  0
   -0.3275   -2.5101    0.0000 N   0  0  0  0  0  0  0  0  0
   -0.8124   -1.8426    0.0000 C   0  0  0  0  0  0  0  0  0
  1  2  1  0  0  0  0
  1  5  1  0  0  0  0
  2  3  1  0  0  0  0
  2  8  1  0  0  0  0
  3  4  1  0  0  0  0
  4  5  1  0  0  0  0
  5  6  1  0  0  0  0
  6  7  1  0  0  0  0
  8  9  1  0  0  0  0
  9 10  1  0  0  0  0
 10 11  4  0  0  0  0
 10 15  4  0  0  0  0
 11 12  4  0  0  0  0
 12 13  4  0  0  0  0
 13 14  4  0  0  0  0
 14 15  4  0  0  0  0
M  END
>  <Name_Molregno>
518279

>  <Dopamine transporter>
5

>  <Norepinephrine transporter>
5.07

>  <Serotonin transporter>
5.34

$$$$
518280
  Marvin  02231216192D 0   1.00000     0.00000     0

 15 16  0  0  1  0  0  0  0  0999 V2000
   -0.2446    0.2499    0.0000 O   0  0  0  0  0  0  0  0  0
   -0.4995   -0.5347    0.0000 C   0  0  0  0  0  0  0  0  0
   -1.3245   -0.5347    0.0000 C   0  0  0  0  0  0  0  0  0
   -1.5795    0.2499    0.0000 C   0  0  0  0  0  0  0  0  0
   -0.9120    0.7349    0.0000 C   0  0  0  0  0  0  0  0  0
   -0.9120    1.5599    0.0000 C   0  0  0  0  0  0  0  0  0
   -1.6265    1.9724    0.0000 C   0  0  0  0  0  0  0  0  0
   -1.6265    2.7974    0.0000 N   0  0  0  0  0  0  0  0  0
   -0.0146   -1.2021    0.0000 C   0  0  0  0  0  0  0  0  0
   -0.3502   -1.9558    0.0000 C   0  0  0  0  0  0  0  0  0
    0.1348   -2.6232    0.0000 C   0  0  0  0  0  0  0  0  0
   -0.2008   -3.3769    0.0000 C   0  0  0  0  0  0  0  0  0
   -1.0213   -3.4631    0.0000 C   0  0  0  0  0  0  0  0  0
   -1.5062   -2.7957    0.0000 C   0  0  0  0  0  0  0  0  0
   -1.1706   -2.0420    0.0000 C   0  0  0  0  0  0  0  0  0
  1  2  1  0  0  0  0
  1  5  1  0  0  0  0
  2  3  1  0  0  0  0
  2  9  1  0  0  0  0
  3  4  1  0  0  0  0
  4  5  1  0  0  0  0
  5  6  1  0  0  0  0
  6  7  1  0  0  0  0
  7  8  1  0  0  0  0
  9 10  1  0  0  0  0
 10 11  4  0  0  0  0
 10 15  4  0  0  0  0
 11 12  4  0  0  0  0
 12 13  4  0  0  0  0
 13 14  4  0  0  0  0
 14 15  4  0  0  0  0
M  END
>  <Name_Molregno>
518280

>  <Dopamine transporter>
5

>  <Norepinephrine transporter>
5

>  <Serotonin transporter>
5.42

$$$$
518281
  Marvin  02231216192D 0   1.00000     0.00000     0

 18 19  0  0  1  0  0  0  0  0999 V2000
    3.1258    3.2071    0.0000 F   0  0  0  0  0  0  0  0  0
    3.1258    2.3821    0.0000 C   0  0  0  0  0  0  0  0  0
    3.8403    1.9696    0.0000 C   0  0  0  0  0  0  0  0  0
    3.8403    1.1446    0.0000 C   0  0  0  0  0  0  0  0  0
    3.1258    0.7321    0.0000 C   0  0  0  0  0  0  0  0  0
    2.4114    1.1446    0.0000 C   0  0  0  0  0  0  0  0  0
    2.4114    1.9696    0.0000 C   0  0  0  0  0  0  0  0  0
    1.6969    2.3821    0.0000 C   0  0  0  0  0  0  0  0  0
    3.1258   -0.0929    0.0000 C   0  0  0  0  0  0  0  0  0
    3.8403   -0.5054    0.0000 C   0  0  0  0  0  0  0  0  0
    3.8403   -1.3304    0.0000 C   0  0  0  0  0  0  0  0  0
    4.5078   -1.8153    0.0000 O   0  0  0  0  0  0  0  0  0
    4.2528   -2.6000    0.0000 C   0  0  0  0  0  0  0  0  0
    3.4278   -2.6000    0.0000 C   0  0  0  0  0  0  0  0  0
    3.1729   -1.8153    0.0000 C   0  0  0  0  0  0  0  0  0
    4.7377   -3.2674    0.0000 C   0  0  0  0  0  0  0  0  0
    4.4022   -4.0211    0.0000 C   0  0  0  0  0  0  0  0  0
    4.8871   -4.6885    0.0000 N   0  0  0  0  0  0  0  0  0
  1  2  1  0  0  0  0
  2  3  4  0  0  0  0
  2  7  4  0  0  0  0
  3  4  4  0  0  0  0
  4  5  4  0  0  0  0
  5  6  4  0  0  0  0
  5  9  1  0  0  0  0
  6  7  4  0  0  0  0
  7  8  1  0  0  0  0
  9 10  1  0  0  0  0
 10 11  1  0  0  0  0
 11 12  1  0  0  0  0
 11 15  1  0  0  0  0
 12 13  1  0  0  0  0
 13 14  1  0  0  0  0
 13 16  1  0  0  0  0
 14 15  1  0  0  0  0
 16 17  1  0  0  0  0
 17 18  1  0  0  0  0
M  END
>  <Name_Molregno>
518281

>  <Dopamine transporter>
5.2

>  <Norepinephrine transporter>
6.05

>  <Serotonin transporter>
6.16

$$$$
518282
  Marvin  02231216192D 0   1.00000     0.00000     0

 17 18  0  0  1  0  0  0  0  0999 V2000
   -1.9117    0.5553    0.0000 O   0  0  0  0  0  0  0  0  0
   -2.1667   -0.2293    0.0000 C   0  0  0  0  0  0  0  0  0
   -2.9917   -0.2293    0.0000 C   0  0  0  0  0  0  0  0  0
   -3.2466    0.5553    0.0000 C   0  0  0  0  0  0  0  0  0
   -2.5792    1.0402    0.0000 C   0  0  0  0  0  0  0  0  0
   -2.5792    1.8652    0.0000 C   0  0  0  0  0  0  0  0  0
   -3.2936    2.2777    0.0000 C   0  0  0  0  0  0  0  0  0
   -3.2936    3.1027    0.0000 N   0  0  0  0  0  0  0  0  0
   -1.6818   -0.8968    0.0000 C   0  0  0  0  0  0  0  0  0
   -0.8613   -0.8105    0.0000 C   0  0  0  0  0  0  0  0  0
   -0.3764   -1.4780    0.0000 C   0  0  0  0  0  0  0  0  0
    0.4441   -1.3917    0.0000 C   0  0  0  0  0  0  0  0  0
    0.9291   -2.0592    0.0000 C   0  0  0  0  0  0  0  0  0
    0.5935   -2.8128    0.0000 C   0  0  0  0  0  0  0  0  0
    1.0784   -3.4803    0.0000 O   0  0  0  0  0  0  0  0  0
   -0.2270   -2.8991    0.0000 C   0  0  0  0  0  0  0  0  0
   -0.7119   -2.2316    0.0000 C   0  0  0  0  0  0  0  0  0
  1  2  1  0  0  0  0
  1  5  1  0  0  0  0
  2  3  1  0  0  0  0
  2  9  1  0  0  0  0
  3  4  1  0  0  0  0
  4  5  1  0  0  0  0
  5  6  1  0  0  0  0
  6  7  1  0  0  0  0
  7  8  1  0  0  0  0
  9 10  1  0  0  0  0
 10 11  1  0  0  0  0
 11 12  4  0  0  0  0
 11 17  4  0  0  0  0
 12 13  4  0  0  0  0
 13 14  4  0  0  0  0
 14 15  1  0  0  0  0
 14 16  4  0  0  0  0
 16 17  4  0  0  0  0
M  END
>  <Name_Molregno>
518282

>  <Dopamine transporter>
5.26

>  <Norepinephrine transporter>
5.23

>  <Serotonin transporter>
5.13

$$$$
518283
  Marvin  02231216192D 0   1.00000     0.00000     0

 13 14  0  0  1  0  0  0  0  0999 V2000
    0.0440   -0.0100    0.0000 O   0  0  0  0  0  0  0  0  0
   -0.2109   -0.7946    0.0000 C   0  0  0  0  0  0  0  0  0
   -1.0359   -0.7946    0.0000 C   0  0  0  0  0  0  0  0  0
   -1.2908   -0.0100    0.0000 C   0  0  0  0  0  0  0  0  0
   -0.6234    0.4749    0.0000 C   0  0  0  0  0  0  0  0  0
   -0.6234    1.2999    0.0000 C   0  0  0  0  0  0  0  0  0
   -1.3379    1.7124    0.0000 C   0  0  0  0  0  0  0  0  0
   -1.3379    2.5374    0.0000 N   0  0  0  0  0  0  0  0  0
    0.2740   -1.4621    0.0000 C   0  0  0  0  0  0  0  0  0
    1.0990   -1.4621    0.0000 O   0  0  0  0  0  0  0  0  0
    1.3540   -2.2467    0.0000 C   0  0  0  0  0  0  0  0  0
    0.6865   -2.7316    0.0000 C   0  0  0  0  0  0  0  0  0
    0.0191   -2.2467    0.0000 C   0  0  0  0  0  0  0  0  0
  1  2  1  0  0  0  0
  1  5  1  0  0  0  0
  2  3  1  0  0  0  0
  2  9  1  0  0  0  0
  3  4  1  0  0  0  0
  4  5  1  0  0  0  0
  5  6  1  0  0  0  0
  6  7  1  0  0  0  0
  7  8  1  0  0  0  0
  9 10  4  0  0  0  0
  9 13  4  0  0  0  0
 10 11  4  0  0  0  0
 11 12  4  0  0  0  0
 12 13  4  0  0  0  0
M  END
>  <Name_Molregno>
518283

>  <Dopamine transporter>
5

>  <Norepinephrine transporter>
5

>  <Serotonin transporter>
5

$$$$
518284
  Marvin  02231216192D 0   1.00000     0.00000     0

 16 17  0  0  1  0  0  0  0  0999 V2000
    3.4240    0.5917    0.0000 F   0  0  0  0  0  0  0  0  0
    2.7095    0.1792    0.0000 C   0  0  0  0  0  0  0  0  0
    2.7095   -0.6458    0.0000 C   0  0  0  0  0  0  0  0  0
    1.9950   -1.0583    0.0000 C   0  0  0  0  0  0  0  0  0
    1.9950   -1.8833    0.0000 C   0  0  0  0  0  0  0  0  0
    2.6625   -2.3682    0.0000 O   0  0  0  0  0  0  0  0  0
    2.4075   -3.1529    0.0000 C   0  0  0  0  0  0  0  0  0
    1.5825   -3.1529    0.0000 C   0  0  0  0  0  0  0  0  0
    1.3276   -2.3682    0.0000 C   0  0  0  0  0  0  0  0  0
    2.8925   -3.8203    0.0000 C   0  0  0  0  0  0  0  0  0
    3.7129   -3.7341    0.0000 N   0  0  0  0  0  0  0  0  0
    1.2806   -0.6458    0.0000 C   0  0  0  0  0  0  0  0  0
    0.5661   -1.0583    0.0000 O   0  0  0  0  0  0  0  0  0
   -0.1484   -0.6458    0.0000 C   0  0  0  0  0  0  0  0  0
    1.2806    0.1792    0.0000 C   0  0  0  0  0  0  0  0  0
    1.9950    0.5917    0.0000 C   0  0  0  0  0  0  0  0  0
  1  2  1  0  0  0  0
  2  3  4  0  0  0  0
  2 16  4  0  0  0  0
  3  4  4  0  0  0  0
  4  5  1  0  0  0  0
  4 12  4  0  0  0  0
  5  6  1  0  0  0  0
  5  9  1  0  0  0  0
  6  7  1  0  0  0  0
  7  8  1  0  0  0  0
  7 10  1  0  0  0  0
  8  9  1  0  0  0  0
 10 11  1  0  0  0  0
 12 13  1  0  0  0  0
 12 15  4  0  0  0  0
 13 14  1  0  0  0  0
 15 16  4  0  0  0  0
M  END
>  <Name_Molregno>
518284

>  <Dopamine transporter>
4.68

>  <Norepinephrine transporter>
4.19

>  <Serotonin transporter>
5.18

$$$$
518286
  Marvin  02231216192D 0   1.00000     0.00000     0

 17 18  0  0  1  0  0  0  0  0999 V2000
    3.6431    0.9201    0.0000 F   0  0  0  0  0  0  0  0  0
    2.9286    0.5076    0.0000 C   0  0  0  0  0  0  0  0  0
    2.9286   -0.3174    0.0000 C   0  0  0  0  0  0  0  0  0
    2.2142   -0.7299    0.0000 C   0  0  0  0  0  0  0  0  0
    2.2142   -1.5549    0.0000 C   0  0  0  0  0  0  0  0  0
    2.8816   -2.0398    0.0000 O   0  0  0  0  0  0  0  0  0
    2.6267   -2.8244    0.0000 C   0  0  0  0  0  0  0  0  0
    1.8017   -2.8244    0.0000 C   0  0  0  0  0  0  0  0  0
    1.5467   -2.0398    0.0000 C   0  0  0  0  0  0  0  0  0
    3.1116   -3.4919    0.0000 C   0  0  0  0  0  0  0  0  0
    2.7760   -4.2455    0.0000 C   0  0  0  0  0  0  0  0  0
    3.2610   -4.9130    0.0000 N   0  0  0  0  0  0  0  0  0
    1.4997   -0.3174    0.0000 C   0  0  0  0  0  0  0  0  0
    0.7852   -0.7299    0.0000 O   0  0  0  0  0  0  0  0  0
    0.0708   -0.3174    0.0000 C   0  0  0  0  0  0  0  0  0
    1.4997    0.5076    0.0000 C   0  0  0  0  0  0  0  0  0
    2.2142    0.9201    0.0000 C   0  0  0  0  0  0  0  0  0
  1  2  1  0  0  0  0
  2  3  4  0  0  0  0
  2 17  4  0  0  0  0
  3  4  4  0  0  0  0
  4  5  1  0  0  0  0
  4 13  4  0  0  0  0
  5  6  1  0  0  0  0
  5  9  1  0  0  0  0
  6  7  1  0  0  0  0
  7  8  1  0  0  0  0
  7 10  1  0  0  0  0
  8  9  1  0  0  0  0
 10 11  1  0  0  0  0
 11 12  1  0  0  0  0
 13 14  1  0  0  0  0
 13 16  4  0  0  0  0
 14 15  1  0  0  0  0
 16 17  4  0  0  0  0
M  END
>  <Name_Molregno>
518286

>  <Dopamine transporter>
4.74

>  <Norepinephrine transporter>
4.43

>  <Serotonin transporter>
5.53

$$$$
518386
  Marvin  02231216192D 0   1.00000     0.00000     0

 17 18  0  0  1  0  0  0  0  0999 V2000
    0.5657    1.1539    0.0000 F   0  0  0  0  0  0  0  0  0
    0.5657    0.3289    0.0000 C   0  0  0  0  0  0  0  0  0
    1.2801   -0.0836    0.0000 C   0  0  0  0  0  0  0  0  0
    1.2801   -0.9086    0.0000 C   0  0  0  0  0  0  0  0  0
    1.9946   -1.3211    0.0000 C   0  0  0  0  0  0  0  0  0
    1.9946   -2.1461    0.0000 C   0  0  0  0  0  0  0  0  0
    2.6621   -2.6310    0.0000 O   0  0  0  0  0  0  0  0  0
    2.4071   -3.4156    0.0000 C   0  0  0  0  0  0  0  0  0
    1.5821   -3.4156    0.0000 C   0  0  0  0  0  0  0  0  0
    1.3272   -2.6310    0.0000 C   0  0  0  0  0  0  0  0  0
    2.8920   -4.0830    0.0000 C   0  0  0  0  0  0  0  0  0
    3.7125   -3.9968    0.0000 N   0  0  0  0  0  0  0  0  0
    0.5657   -1.3211    0.0000 C   0  0  0  0  0  0  0  0  0
    0.5657   -2.1461    0.0000 O   0  0  0  0  0  0  0  0  0
   -0.1488   -2.5586    0.0000 C   0  0  0  0  0  0  0  0  0
   -0.1488   -0.9086    0.0000 C   0  0  0  0  0  0  0  0  0
   -0.1488   -0.0836    0.0000 C   0  0  0  0  0  0  0  0  0
  1  2  1  0  0  0  0
  2  3  4  0  0  0  0
  2 17  4  0  0  0  0
  3  4  4  0  0  0  0
  4  5  1  0  0  0  0
  4 13  4  0  0  0  0
  5  6  1  0  0  0  0
  6  7  1  0  0  0  0
  6 10  1  0  0  0  0
  7  8  1  0  0  0  0
  8  9  1  0  0  0  0
  8 11  1  0  0  0  0
  9 10  1  0  0  0  0
 11 12  1  0  0  0  0
 13 14  1  0  0  0  0
 13 16  4  0  0  0  0
 14 15  1  0  0  0  0
 16 17  4  0  0  0  0
M  END
>  <Name_Molregno>
518386

>  <Dopamine transporter>
4.29

>  <Norepinephrine transporter>
4.83

>  <Serotonin transporter>
6.77

$$$$
518388
  Marvin  02231216192D 0   1.00000     0.00000     0

 18 19  0  0  1  0  0  0  0  0999 V2000
    0.7591    1.4340    0.0000 F   0  0  0  0  0  0  0  0  0
    0.7591    0.6090    0.0000 C   0  0  0  0  0  0  0  0  0
    1.4736    0.1965    0.0000 C   0  0  0  0  0  0  0  0  0
    1.4736   -0.6285    0.0000 C   0  0  0  0  0  0  0  0  0
    2.1881   -1.0410    0.0000 C   0  0  0  0  0  0  0  0  0
    2.1881   -1.8660    0.0000 C   0  0  0  0  0  0  0  0  0
    2.8555   -2.3509    0.0000 O   0  0  0  0  0  0  0  0  0
    2.6006   -3.1355    0.0000 C   0  0  0  0  0  0  0  0  0
    1.7756   -3.1355    0.0000 C   0  0  0  0  0  0  0  0  0
    1.5206   -2.3509    0.0000 C   0  0  0  0  0  0  0  0  0
    3.0855   -3.8029    0.0000 C   0  0  0  0  0  0  0  0  0
    2.7499   -4.5566    0.0000 C   0  0  0  0  0  0  0  0  0
    3.2349   -5.2241    0.0000 N   0  0  0  0  0  0  0  0  0
    0.7591   -1.0410    0.0000 C   0  0  0  0  0  0  0  0  0
    0.7591   -1.8660    0.0000 O   0  0  0  0  0  0  0  0  0
    0.0446   -2.2785    0.0000 C   0  0  0  0  0  0  0  0  0
    0.0446   -0.6285    0.0000 C   0  0  0  0  0  0  0  0  0
    0.0446    0.1965    0.0000 C   0  0  0  0  0  0  0  0  0
  1  2  1  0  0  0  0
  2  3  4  0  0  0  0
  2 18  4  0  0  0  0
  3  4  4  0  0  0  0
  4  5  1  0  0  0  0
  4 14  4  0  0  0  0
  5  6  1  0  0  0  0
  6  7  1  0  0  0  0
  6 10  1  0  0  0  0
  7  8  1  0  0  0  0
  8  9  1  0  0  0  0
  8 11  1  0  0  0  0
  9 10  1  0  0  0  0
 11 12  1  0  0  0  0
 12 13  1  0  0  0  0
 14 15  1  0  0  0  0
 14 17  4  0  0  0  0
 15 16  1  0  0  0  0
 17 18  4  0  0  0  0
M  END
>  <Name_Molregno>
518388

>  <Dopamine transporter>
4.38

>  <Norepinephrine transporter>
6.05

>  <Serotonin transporter>
7.69

$$$$
518390
  Marvin  02231216192D 0   1.00000     0.00000     0

 18 19  0  0  1  0  0  0  0  0999 V2000
    2.7447    0.3336    0.0000 F   0  0  0  0  0  0  0  0  0
    2.0302   -0.0789    0.0000 C   0  0  0  0  0  0  0  0  0
    2.0302   -0.9039    0.0000 C   0  0  0  0  0  0  0  0  0
    1.3157   -1.3164    0.0000 C   0  0  0  0  0  0  0  0  0
    1.3157   -2.1414    0.0000 C   0  0  0  0  0  0  0  0  0
    2.0302   -2.5539    0.0000 C   0  0  0  0  0  0  0  0  0
    2.0302   -3.3789    0.0000 C   0  0  0  0  0  0  0  0  0
    2.6976   -3.8638    0.0000 O   0  0  0  0  0  0  0  0  0
    2.4427   -4.6484    0.0000 C   0  0  0  0  0  0  0  0  0
    1.6177   -4.6484    0.0000 C   0  0  0  0  0  0  0  0  0
    1.3628   -3.8638    0.0000 C   0  0  0  0  0  0  0  0  0
    2.9276   -5.3158    0.0000 C   0  0  0  0  0  0  0  0  0
    3.7481   -5.2296    0.0000 N   0  0  0  0  0  0  0  0  0
    0.6013   -0.9039    0.0000 C   0  0  0  0  0  0  0  0  0
   -0.1132   -1.3164    0.0000 O   0  0  0  0  0  0  0  0  0
   -0.8277   -0.9039    0.0000 C   0  0  0  0  0  0  0  0  0
    0.6013   -0.0789    0.0000 C   0  0  0  0  0  0  0  0  0
    1.3157    0.3336    0.0000 C   0  0  0  0  0  0  0  0  0
  1  2  1  0  0  0  0
  2  3  4  0  0  0  0
  2 18  4  0  0  0  0
  3  4  4  0  0  0  0
  4  5  1  0  0  0  0
  4 14  4  0  0  0  0
  5  6  1  0  0  0  0
  6  7  1  0  0  0  0
  7  8  1  0  0  0  0
  7 11  1  0  0  0  0
  8  9  1  0  0  0  0
  9 10  1  0  0  0  0
  9 12  1  0  0  0  0
 10 11  1  0  0  0  0
 12 13  1  0  0  0  0
 14 15  1  0  0  0  0
 14 17  4  0  0  0  0
 15 16  1  0  0  0  0
 17 18  4  0  0  0  0
M  END
>  <Name_Molregno>
518390

>  <Dopamine transporter>
4.68

>  <Norepinephrine transporter>
5.15

>  <Serotonin transporter>
8.07

$$$$
518494
  Marvin  02231216192D 0   1.00000     0.00000     0

 19 20  0  0  1  0  0  0  0  0999 V2000
   -1.9558    0.8813    0.0000 F   0  0  0  0  0  0  0  0  0
   -1.9558    0.0563    0.0000 C   0  0  0  0  0  0  0  0  0
   -1.2413   -0.3562    0.0000 C   0  0  0  0  0  0  0  0  0
   -1.2413   -1.1812    0.0000 C   0  0  0  0  0  0  0  0  0
   -0.5268   -1.5937    0.0000 C   0  0  0  0  0  0  0  0  0
   -0.5268   -2.4187    0.0000 C   0  0  0  0  0  0  0  0  0
    0.1876   -2.8312    0.0000 C   0  0  0  0  0  0  0  0  0
    0.1876   -3.6562    0.0000 C   0  0  0  0  0  0  0  0  0
    0.8551   -4.1411    0.0000 O   0  0  0  0  0  0  0  0  0
    0.6001   -4.9258    0.0000 C   0  0  0  0  0  0  0  0  0
   -0.2249   -4.9258    0.0000 C   0  0  0  0  0  0  0  0  0
   -0.4798   -4.1411    0.0000 C   0  0  0  0  0  0  0  0  0
    1.0850   -5.5932    0.0000 C   0  0  0  0  0  0  0  0  0
    1.9055   -5.5070    0.0000 N   0  0  0  0  0  0  0  0  0
   -1.9558   -1.5937    0.0000 C   0  0  0  0  0  0  0  0  0
   -1.9558   -2.4187    0.0000 O   0  0  0  0  0  0  0  0  0
   -2.6703   -2.8312    0.0000 C   0  0  0  0  0  0  0  0  0
   -2.6703   -1.1812    0.0000 C   0  0  0  0  0  0  0  0  0
   -2.6703   -0.3562    0.0000 C   0  0  0  0  0  0  0  0  0
  1  2  1  0  0  0  0
  2  3  4  0  0  0  0
  2 19  4  0  0  0  0
  3  4  4  0  0  0  0
  4  5  1  0  0  0  0
  4 15  4  0  0  0  0
  5  6  1  0  0  0  0
  6  7  1  0  0  0  0
  7  8  1  0  0  0  0
  8  9  1  0  0  0  0
  8 12  1  0  0  0  0
  9 10  1  0  0  0  0
 10 11  1  0  0  0  0
 10 13  1  0  0  0  0
 11 12  1  0  0  0  0
 13 14  1  0  0  0  0
 15 16  1  0  0  0  0
 15 18  4  0  0  0  0
 16 17  1  0  0  0  0
 18 19  4  0  0  0  0
M  END
>  <Name_Molregno>
518494

>  <Dopamine transporter>
5.24

>  <Norepinephrine transporter>
4.89

>  <Serotonin transporter>
8.83

$$$$
518498
  Marvin  02231216192D 0   1.00000     0.00000     0

 20 21  0  0  1  0  0  0  0  0999 V2000
    0.7624    1.4370    0.0000 F   0  0  0  0  0  0  0  0  0
    0.7624    0.6120    0.0000 C   0  0  0  0  0  0  0  0  0
    1.4768    0.1995    0.0000 C   0  0  0  0  0  0  0  0  0
    1.4768   -0.6255    0.0000 C   0  0  0  0  0  0  0  0  0
    2.1913   -1.0380    0.0000 C   0  0  0  0  0  0  0  0  0
    2.9058   -0.6255    0.0000 C   0  0  0  0  0  0  0  0  0
    3.6203   -1.0380    0.0000 C   0  0  0  0  0  0  0  0  0
    4.3347   -0.6255    0.0000 C   0  0  0  0  0  0  0  0  0
    5.0492   -1.0380    0.0000 C   0  0  0  0  0  0  0  0  0
    5.8029   -0.7025    0.0000 O   0  0  0  0  0  0  0  0  0
    6.3549   -1.3156    0.0000 C   0  0  0  0  0  0  0  0  0
    5.9424   -2.0300    0.0000 C   0  0  0  0  0  0  0  0  0
    5.1354   -1.8585    0.0000 C   0  0  0  0  0  0  0  0  0
    7.1754   -1.2293    0.0000 C   0  0  0  0  0  0  0  0  0
    7.5109   -0.4756    0.0000 N   0  0  0  0  0  0  0  0  0
    0.7624   -1.0380    0.0000 C   0  0  0  0  0  0  0  0  0
    0.7624   -1.8630    0.0000 O   0  0  0  0  0  0  0  0  0
    0.0479   -2.2755    0.0000 C   0  0  0  0  0  0  0  0  0
    0.0479   -0.6255    0.0000 C   0  0  0  0  0  0  0  0  0
    0.0479    0.1995    0.0000 C   0  0  0  0  0  0  0  0  0
  1  2  1  0  0  0  0
  2  3  4  0  0  0  0
  2 20  4  0  0  0  0
  3  4  4  0  0  0  0
  4  5  1  0  0  0  0
  4 16  4  0  0  0  0
  5  6  1  0  0  0  0
  6  7  1  0  0  0  0
  7  8  1  0  0  0  0
  8  9  1  0  0  0  0
  9 10  1  0  0  0  0
  9 13  1  0  0  0  0
 10 11  1  0  0  0  0
 11 12  1  0  0  0  0
 11 14  1  0  0  0  0
 12 13  1  0  0  0  0
 14 15  1  0  0  0  0
 16 17  1  0  0  0  0
 16 19  4  0  0  0  0
 17 18  1  0  0  0  0
 19 20  4  0  0  0  0
M  END
>  <Name_Molregno>
518498

>  <Dopamine transporter>
5.41

>  <Norepinephrine transporter>
5.65

>  <Serotonin transporter>
8.4

$$$$
518499
  Marvin  02231216192D 0   1.00000     0.00000     0

 21 22  0  0  1  0  0  0  0  0999 V2000
   -5.9548    1.6388    0.0000 F   0  0  0  0  0  0  0  0  0
   -5.9548    0.8138    0.0000 C   0  0  0  0  0  0  0  0  0
   -5.2403    0.4013    0.0000 C   0  0  0  0  0  0  0  0  0
   -5.2403   -0.4237    0.0000 C   0  0  0  0  0  0  0  0  0
   -4.5258   -0.8362    0.0000 C   0  0  0  0  0  0  0  0  0
   -3.8113   -0.4237    0.0000 C   0  0  0  0  0  0  0  0  0
   -3.0969   -0.8362    0.0000 C   0  0  0  0  0  0  0  0  0
   -2.3824   -0.4237    0.0000 C   0  0  0  0  0  0  0  0  0
   -1.6679   -0.8362    0.0000 C   0  0  0  0  0  0  0  0  0
   -0.9143   -0.5007    0.0000 O   0  0  0  0  0  0  0  0  0
   -0.3622   -1.1138    0.0000 C   0  0  0  0  0  0  0  0  0
   -0.7747   -1.8282    0.0000 C   0  0  0  0  0  0  0  0  0
   -1.5817   -1.6567    0.0000 C   0  0  0  0  0  0  0  0  0
    0.4583   -1.0275    0.0000 C   0  0  0  0  0  0  0  0  0
    0.9432   -1.6950    0.0000 C   0  0  0  0  0  0  0  0  0
    1.7637   -1.6087    0.0000 N   0  0  0  0  0  0  0  0  0
   -5.9548   -0.8362    0.0000 C   0  0  0  0  0  0  0  0  0
   -5.9548   -1.6612    0.0000 O   0  0  0  0  0  0  0  0  0
   -6.6692   -2.0737    0.0000 C   0  0  0  0  0  0  0  0  0
   -6.6692   -0.4237    0.0000 C   0  0  0  0  0  0  0  0  0
   -6.6692    0.4013    0.0000 C   0  0  0  0  0  0  0  0  0
  1  2  1  0  0  0  0
  2  3  4  0  0  0  0
  2 21  4  0  0  0  0
  3  4  4  0  0  0  0
  4  5  1  0  0  0  0
  4 17  4  0  0  0  0
  5  6  1  0  0  0  0
  6  7  1  0  0  0  0
  7  8  1  0  0  0  0
  8  9  1  0  0  0  0
  9 10  1  0  0  0  0
  9 13  1  0  0  0  0
 10 11  1  0  0  0  0
 11 12  1  0  0  0  0
 11 14  1  0  0  0  0
 12 13  1  0  0  0  0
 14 15  1  0  0  0  0
 15 16  1  0  0  0  0
 17 18  1  0  0  0  0
 17 20  4  0  0  0  0
 18 19  1  0  0  0  0
 20 21  4  0  0  0  0
M  END
>  <Name_Molregno>
518499

>  <Dopamine transporter>
5.47

>  <Norepinephrine transporter>
5.39

>  <Serotonin transporter>
8.7

$$$$
518664
  Marvin  02231216192D 0   1.00000     0.00000     0

 22 24  0  0  1  0  0  0  0  0999 V2000
   -3.3180   -1.1700    0.0000 O   0  0  0  0  0  0  0  0  0
   -2.6505   -0.6850    0.0000 C   0  0  0  0  0  0  0  0  0
   -1.9831   -1.1700    0.0000 C   0  0  0  0  0  0  0  0  0
   -2.2380   -1.9546    0.0000 C   0  0  0  0  0  0  0  0  0
   -3.0630   -1.9546    0.0000 C   0  0  0  0  0  0  0  0  0
   -3.5479   -2.6220    0.0000 C   0  0  0  0  0  0  0  0  0
   -3.2124   -3.3757    0.0000 C   0  0  0  0  0  0  0  0  0
   -3.6973   -4.0431    0.0000 N   0  0  0  0  0  0  0  0  0
   -2.6505    0.1400    0.0000 C   0  0  0  0  0  0  0  0  0
   -1.9360    0.5525    0.0000 C   0  0  0  0  0  0  0  0  0
   -1.9360    1.3775    0.0000 C   0  0  0  0  0  0  0  0  0
   -1.2216    1.7900    0.0000 C   0  0  0  0  0  0  0  0  0
   -1.2216    2.6150    0.0000 C   0  0  0  0  0  0  0  0  0
   -0.5071    3.0275    0.0000 C   0  0  0  0  0  0  0  0  0
    0.2074    2.6150    0.0000 C   0  0  0  0  0  0  0  0  0
    0.2074    1.7900    0.0000 C   0  0  0  0  0  0  0  0  0
   -0.5071    1.3775    0.0000 C   0  0  0  0  0  0  0  0  0
   -1.9360    3.0275    0.0000 C   0  0  0  0  0  0  0  0  0
   -1.9360    3.8525    0.0000 O   0  0  0  0  0  0  0  0  0
   -2.6505    4.2650    0.0000 C   0  0  0  0  0  0  0  0  0
   -2.6505    2.6150    0.0000 C   0  0  0  0  0  0  0  0  0
   -2.6505    1.7900    0.0000 C   0  0  0  0  0  0  0  0  0
  1  2  1  0  0  0  0
  1  5  1  0  0  0  0
  2  3  1  0  0  0  0
  2  9  1  0  0  0  0
  3  4  1  0  0  0  0
  4  5  1  0  0  0  0
  5  6  1  0  0  0  0
  6  7  1  0  0  0  0
  7  8  1  0  0  0  0
  9 10  1  0  0  0  0
 10 11  1  0  0  0  0
 11 12  4  0  0  0  0
 11 22  4  0  0  0  0
 12 13  4  0  0  0  0
 12 17  4  0  0  0  0
 13 14  4  0  0  0  0
 13 18  4  0  0  0  0
 14 15  4  0  0  0  0
 15 16  4  0  0  0  0
 16 17  4  0  0  0  0
 18 19  1  0  0  0  0
 18 21  4  0  0  0  0
 19 20  1  0  0  0  0
 21 22  4  0  0  0  0
M  END
>  <Name_Molregno>
518664

>  <Dopamine transporter>
5

>  <Norepinephrine transporter>
5

>  <Serotonin transporter>
7.04

$$$$
518665
  Marvin  02231216192D 0   1.00000     0.00000     0

 22 24  0  0  1  0  0  0  0  0999 V2000
   -2.9761   -2.0262    0.0000 O   0  0  0  0  0  0  0  0  0
   -2.3087   -1.5413    0.0000 C   0  0  0  0  0  0  0  0  0
   -1.6412   -2.0262    0.0000 C   0  0  0  0  0  0  0  0  0
   -1.8962   -2.8108    0.0000 C   0  0  0  0  0  0  0  0  0
   -2.7212   -2.8108    0.0000 C   0  0  0  0  0  0  0  0  0
   -3.2061   -3.4783    0.0000 C   0  0  0  0  0  0  0  0  0
   -2.8705   -4.2319    0.0000 C   0  0  0  0  0  0  0  0  0
   -3.3555   -4.8994    0.0000 N   0  0  0  0  0  0  0  0  0
   -2.3087   -0.7163    0.0000 C   0  0  0  0  0  0  0  0  0
   -1.5942   -0.3038    0.0000 C   0  0  0  0  0  0  0  0  0
   -1.5942    0.5212    0.0000 C   0  0  0  0  0  0  0  0  0
   -0.8797    0.9337    0.0000 C   0  0  0  0  0  0  0  0  0
   -0.8797    1.7587    0.0000 C   0  0  0  0  0  0  0  0  0
   -1.5942    2.1712    0.0000 C   0  0  0  0  0  0  0  0  0
   -2.3087    1.7587    0.0000 C   0  0  0  0  0  0  0  0  0
   -2.3087    0.9337    0.0000 C   0  0  0  0  0  0  0  0  0
   -3.0231    0.5212    0.0000 O   0  0  0  0  0  0  0  0  0
   -3.7376    0.9337    0.0000 C   0  0  0  0  0  0  0  0  0
   -0.1653    2.1712    0.0000 C   0  0  0  0  0  0  0  0  0
    0.5492    1.7587    0.0000 C   0  0  0  0  0  0  0  0  0
    0.5492    0.9337    0.0000 C   0  0  0  0  0  0  0  0  0
   -0.1653    0.5212    0.0000 C   0  0  0  0  0  0  0  0  0
  1  2  1  0  0  0  0
  1  5  1  0  0  0  0
  2  3  1  0  0  0  0
  2  9  1  0  0  0  0
  3  4  1  0  0  0  0
  4  5  1  0  0  0  0
  5  6  1  0  0  0  0
  6  7  1  0  0  0  0
  7  8  1  0  0  0  0
  9 10  1  0  0  0  0
 10 11  1  0  0  0  0
 11 12  4  0  0  0  0
 11 16  4  0  0  0  0
 12 13  4  0  0  0  0
 12 22  4  0  0  0  0
 13 14  4  0  0  0  0
 13 19  4  0  0  0  0
 14 15  4  0  0  0  0
 15 16  4  0  0  0  0
 16 17  1  0  0  0  0
 17 18  1  0  0  0  0
 19 20  4  0  0  0  0
 20 21  4  0  0  0  0
 21 22  4  0  0  0  0
M  END
>  <Name_Molregno>
518665

>  <Dopamine transporter>
5

>  <Norepinephrine transporter>
5

>  <Serotonin transporter>
7.07

$$$$
555551
  Marvin  02231216192D 0   1.00000     0.00000     0

 22 24  0  0  1  0  0  0  0  0999 V2000
   -3.0124    1.1846    0.0000 F   0  0  0  0  0  0  0  0  0
   -2.2979    1.5971    0.0000 C   0  0  0  0  0  0  0  0  0
   -1.8854    0.8827    0.0000 F   0  0  0  0  0  0  0  0  0
   -2.7104    2.3116    0.0000 F   0  0  0  0  0  0  0  0  0
   -1.5834    2.0096    0.0000 C   0  0  0  0  0  0  0  0  0
   -1.5834    2.8346    0.0000 C   0  0  0  0  0  0  0  0  0
   -0.8689    3.2471    0.0000 C   0  0  0  0  0  0  0  0  0
   -0.1545    2.8346    0.0000 C   0  0  0  0  0  0  0  0  0
   -0.1545    2.0096    0.0000 C   0  0  0  0  0  0  0  0  0
   -0.8689    1.5971    0.0000 C   0  0  0  0  0  0  0  0  0
   -0.8689    0.7721    0.0000 C   0  0  0  0  0  0  0  0  0
   -1.5834    0.3596    0.0000 O   0  0  0  0  0  0  0  0  0
   -0.1545    0.3596    0.0000 N   0  0  0  0  0  0  0  0  0
   -0.1545   -0.4654    0.0000 C   0  0  0  0  0  0  0  0  0
    0.4289   -1.0487    0.0000 C   0  0  0  0  0  0  0  0  0
   -0.1545   -1.6321    0.0000 C   0  0  0  0  0  0  0  0  0
   -0.7378   -1.0487    0.0000 C   0  0  0  0  0  0  0  0  0
    0.5600    0.7721    0.0000 C   0  0  0  0  0  0  0  0  0
    0.6462    1.5926    0.0000 C   0  0  0  0  0  0  0  0  0
    1.4532    1.7641    0.0000 C   0  0  0  0  0  0  0  0  0
    1.8657    1.0497    0.0000 N   0  0  0  0  0  0  0  0  0
    1.3137    0.4366    0.0000 C   0  0  0  0  0  0  0  0  0
  1  2  1  0  0  0  0
  2  3  1  0  0  0  0
  2  4  1  0  0  0  0
  2  5  1  0  0  0  0
  5  6  4  0  0  0  0
  5 10  4  0  0  0  0
  6  7  4  0  0  0  0
  7  8  4  0  0  0  0
  8  9  4  0  0  0  0
  9 10  4  0  0  0  0
 10 11  1  0  0  0  0
 11 12  2  0  0  0  0
 11 13  1  0  0  0  0
 13 14  1  0  0  0  0
 13 18  1  0  0  0  0
 14 15  1  0  0  0  0
 14 17  1  0  0  0  0
 15 16  1  0  0  0  0
 16 17  1  0  0  0  0
 18 19  1  0  0  0  0
 18 22  1  0  0  0  0
 19 20  1  0  0  0  0
 20 21  1  0  0  0  0
 21 22  1  0  0  0  0
M  END
>  <Name_Molregno>
555551

>  <Dopamine transporter>
5

>  <Norepinephrine transporter>
7.22

>  <Serotonin transporter>
6.68

$$$$
555577
  Marvin  02231216192D 0   1.00000     0.00000     0

 22 24  0  0  1  0  0  0  0  0999 V2000
   -1.5176   -0.1385    0.0000 O   0  0  0  0  0  0  0  0  0
   -0.8031    0.2740    0.0000 C   0  0  0  0  0  0  0  0  0
   -0.8031    1.0990    0.0000 C   0  0  0  0  0  0  0  0  0
   -0.0886    1.5115    0.0000 C   0  0  0  0  0  0  0  0  0
    0.6259    1.0990    0.0000 C   0  0  0  0  0  0  0  0  0
    0.6259    0.2740    0.0000 C   0  0  0  0  0  0  0  0  0
   -0.0886   -0.1385    0.0000 C   0  0  0  0  0  0  0  0  0
   -0.0886   -0.9635    0.0000 C   0  0  0  0  0  0  0  0  0
   -0.8031   -1.3760    0.0000 O   0  0  0  0  0  0  0  0  0
    0.6259   -1.3760    0.0000 N   0  0  0  0  0  0  0  0  0
    1.3403   -0.9635    0.0000 C   0  0  0  0  0  0  0  0  0
    0.6259   -2.2010    0.0000 C   0  0  0  0  0  0  0  0  0
    1.2933   -2.6859    0.0000 C   0  0  0  0  0  0  0  0  0
    1.0384   -3.4705    0.0000 C   0  0  0  0  0  0  0  0  0
    0.2134   -3.4705    0.0000 N   0  0  0  0  0  0  0  0  0
   -0.0416   -2.6859    0.0000 C   0  0  0  0  0  0  0  0  0
   -2.2320    0.2740    0.0000 C   0  0  0  0  0  0  0  0  0
   -2.9465   -0.1385    0.0000 C   0  0  0  0  0  0  0  0  0
   -3.6610    0.2740    0.0000 C   0  0  0  0  0  0  0  0  0
   -3.6610    1.0990    0.0000 C   0  0  0  0  0  0  0  0  0
   -2.9465    1.5115    0.0000 C   0  0  0  0  0  0  0  0  0
   -2.2320    1.0990    0.0000 C   0  0  0  0  0  0  0  0  0
  1  2  1  0  0  0  0
  1 17  1  0  0  0  0
  2  3  4  0  0  0  0
  2  7  4  0  0  0  0
  3  4  4  0  0  0  0
  4  5  4  0  0  0  0
  5  6  4  0  0  0  0
  6  7  4  0  0  0  0
  7  8  1  0  0  0  0
  8  9  2  0  0  0  0
  8 10  1  0  0  0  0
 10 11  1  0  0  0  0
 10 12  1  0  0  0  0
 12 13  1  0  0  0  0
 12 16  1  0  0  0  0
 13 14  1  0  0  0  0
 14 15  1  0  0  0  0
 15 16  1  0  0  0  0
 17 18  4  0  0  0  0
 17 22  4  0  0  0  0
 18 19  4  0  0  0  0
 19 20  4  0  0  0  0
 20 21  4  0  0  0  0
 21 22  4  0  0  0  0
M  END
>  <Name_Molregno>
555577

>  <Dopamine transporter>
5.5

>  <Norepinephrine transporter>
7.21

>  <Serotonin transporter>
6.18

$$$$
555578
  Marvin  02231216192D 0   1.00000     0.00000     0

 25 28  0  0  1  0  0  0  0  0999 V2000
   -2.0756   -0.5259    0.0000 O   0  0  0  0  0  0  0  0  0
   -1.3611   -0.1134    0.0000 C   0  0  0  0  0  0  0  0  0
   -1.3611    0.7116    0.0000 C   0  0  0  0  0  0  0  0  0
   -0.6466    1.1241    0.0000 C   0  0  0  0  0  0  0  0  0
    0.0678    0.7116    0.0000 C   0  0  0  0  0  0  0  0  0
    0.0678   -0.1134    0.0000 C   0  0  0  0  0  0  0  0  0
   -0.6466   -0.5259    0.0000 C   0  0  0  0  0  0  0  0  0
   -0.6466   -1.3509    0.0000 C   0  0  0  0  0  0  0  0  0
   -1.3611   -1.7634    0.0000 O   0  0  0  0  0  0  0  0  0
    0.0678   -1.7634    0.0000 N   0  0  0  0  0  0  0  0  0
    0.0678   -2.5884    0.0000 C   0  0  0  0  0  0  0  0  0
    0.6512   -3.1718    0.0000 C   0  0  0  0  0  0  0  0  0
    0.0678   -3.7552    0.0000 C   0  0  0  0  0  0  0  0  0
   -0.5155   -3.1718    0.0000 C   0  0  0  0  0  0  0  0  0
    0.7823   -1.3509    0.0000 C   0  0  0  0  0  0  0  0  0
    0.8685   -0.5305    0.0000 C   0  0  0  0  0  0  0  0  0
    1.6755   -0.3589    0.0000 C   0  0  0  0  0  0  0  0  0
    2.0880   -1.0734    0.0000 N   0  0  0  0  0  0  0  0  0
    1.5360   -1.6865    0.0000 C   0  0  0  0  0  0  0  0  0
   -2.7900   -0.1134    0.0000 C   0  0  0  0  0  0  0  0  0
   -3.5045   -0.5259    0.0000 C   0  0  0  0  0  0  0  0  0
   -4.2190   -0.1134    0.0000 C   0  0  0  0  0  0  0  0  0
   -4.2190    0.7116    0.0000 C   0  0  0  0  0  0  0  0  0
   -3.5045    1.1241    0.0000 C   0  0  0  0  0  0  0  0  0
   -2.7900    0.7116    0.0000 C   0  0  0  0  0  0  0  0  0
  1  2  1  0  0  0  0
  1 20  1  0  0  0  0
  2  3  4  0  0  0  0
  2  7  4  0  0  0  0
  3  4  4  0  0  0  0
  4  5  4  0  0  0  0
  5  6  4  0  0  0  0
  6  7  4  0  0  0  0
  7  8  1  0  0  0  0
  8  9  2  0  0  0  0
  8 10  1  0  0  0  0
 10 11  1  0  0  0  0
 10 15  1  0  0  0  0
 11 12  1  0  0  0  0
 11 14  1  0  0  0  0
 12 13  1  0  0  0  0
 13 14  1  0  0  0  0
 15 16  1  0  0  0  0
 15 19  1  0  0  0  0
 16 17  1  0  0  0  0
 17 18  1  0  0  0  0
 18 19  1  0  0  0  0
 20 21  4  0  0  0  0
 20 25  4  0  0  0  0
 21 22  4  0  0  0  0
 22 23  4  0  0  0  0
 23 24  4  0  0  0  0
 24 25  4  0  0  0  0
M  END
>  <Name_Molregno>
555578

>  <Dopamine transporter>
5

>  <Norepinephrine transporter>
7.89

>  <Serotonin transporter>
6.65

$$$$
557263
  Marvin  02231216192D 0   1.00000     0.00000     0

 21 23  0  0  1  0  0  0  0  0999 V2000
   -0.7802   -0.0189    0.0000 O   0  0  0  0  0  0  0  0  0
   -0.0657   -0.4314    0.0000 C   0  0  0  0  0  0  0  0  0
   -0.0657   -1.2564    0.0000 N   0  0  0  0  0  0  0  0  0
    0.6487   -1.6689    0.0000 C   0  0  0  0  0  0  0  0  0
    0.6487   -2.4939    0.0000 C   0  0  0  0  0  0  0  0  0
    1.2321   -3.0773    0.0000 C   0  0  0  0  0  0  0  0  0
    0.6487   -3.6606    0.0000 C   0  0  0  0  0  0  0  0  0
    0.0654   -3.0773    0.0000 C   0  0  0  0  0  0  0  0  0
   -0.7802   -1.6689    0.0000 C   0  0  0  0  0  0  0  0  0
   -1.5339   -1.3334    0.0000 C   0  0  0  0  0  0  0  0  0
   -2.0859   -1.9464    0.0000 C   0  0  0  0  0  0  0  0  0
   -1.6734   -2.6609    0.0000 N   0  0  0  0  0  0  0  0  0
   -0.8664   -2.4894    0.0000 C   0  0  0  0  0  0  0  0  0
    0.6487   -0.0189    0.0000 C   0  0  0  0  0  0  0  0  0
    0.6487    0.8061    0.0000 C   0  0  0  0  0  0  0  0  0
    1.3632    1.2186    0.0000 C   0  0  0  0  0  0  0  0  0
    2.0777    0.8061    0.0000 C   0  0  0  0  0  0  0  0  0
    2.0777   -0.0189    0.0000 C   0  0  0  0  0  0  0  0  0
    1.3632   -0.4314    0.0000 C   0  0  0  0  0  0  0  0  0
    1.3632   -1.2564    0.0000 C   0  0  0  0  0  0  0  0  0
    2.0777   -1.6689    0.0000 C   0  0  0  0  0  0  0  0  0
  1  2  2  0  0  0  0
  2  3  1  0  0  0  0
  2 14  1  0  0  0  0
  3  4  1  0  0  0  0
  3  9  1  0  0  0  0
  4  5  1  0  0  0  0
  5  6  1  0  0  0  0
  5  8  1  0  0  0  0
  6  7  1  0  0  0  0
  7  8  1  0  0  0  0
  9 10  1  0  0  0  0
  9 13  1  0  0  0  0
 10 11  1  0  0  0  0
 11 12  1  0  0  0  0
 12 13  1  0  0  0  0
 14 15  4  0  0  0  0
 14 19  4  0  0  0  0
 15 16  4  0  0  0  0
 16 17  4  0  0  0  0
 17 18  4  0  0  0  0
 18 19  4  0  0  0  0
 19 20  1  0  0  0  0
 20 21  1  0  0  0  0
M  END
>  <Name_Molregno>
557263

>  <Dopamine transporter>
5.57

>  <Norepinephrine transporter>
7.54

>  <Serotonin transporter>
6.63

$$$$
557280
  Marvin  02231216192D 0   1.00000     0.00000     0

 22 24  0  0  1  0  0  0  0  0999 V2000
    0.0362    0.0418    0.0000 S   0  0  0  0  0  0  0  0  0
    0.7507    0.4543    0.0000 C   0  0  0  0  0  0  0  0  0
    0.0362   -0.7832    0.0000 C   0  0  0  0  0  0  0  0  0
    0.7507   -1.1957    0.0000 C   0  0  0  0  0  0  0  0  0
    0.7507   -2.0207    0.0000 C   0  0  0  0  0  0  0  0  0
    0.0362   -2.4332    0.0000 C   0  0  0  0  0  0  0  0  0
   -0.6782   -2.0207    0.0000 C   0  0  0  0  0  0  0  0  0
   -0.6782   -1.1957    0.0000 C   0  0  0  0  0  0  0  0  0
   -1.3927   -0.7832    0.0000 C   0  0  0  0  0  0  0  0  0
   -1.3927    0.0418    0.0000 O   0  0  0  0  0  0  0  0  0
   -2.1072   -1.1957    0.0000 N   0  0  0  0  0  0  0  0  0
   -2.8217   -0.7832    0.0000 C   0  0  0  0  0  0  0  0  0
   -3.5361   -1.1957    0.0000 C   0  0  0  0  0  0  0  0  0
   -4.2506   -0.7832    0.0000 C   0  0  0  0  0  0  0  0  0
   -4.2506    0.0418    0.0000 C   0  0  0  0  0  0  0  0  0
   -3.5361    0.4543    0.0000 C   0  0  0  0  0  0  0  0  0
   -2.8217    0.0418    0.0000 C   0  0  0  0  0  0  0  0  0
   -2.1072   -2.0207    0.0000 C   0  0  0  0  0  0  0  0  0
   -1.4397   -2.5056    0.0000 C   0  0  0  0  0  0  0  0  0
   -1.6947   -3.2902    0.0000 C   0  0  0  0  0  0  0  0  0
   -2.5197   -3.2902    0.0000 N   0  0  0  0  0  0  0  0  0
   -2.7746   -2.5056    0.0000 C   0  0  0  0  0  0  0  0  0
  1  2  1  0  0  0  0
  1  3  1  0  0  0  0
  3  4  4  0  0  0  0
  3  8  4  0  0  0  0
  4  5  4  0  0  0  0
  5  6  4  0  0  0  0
  6  7  4  0  0  0  0
  7  8  4  0  0  0  0
  8  9  1  0  0  0  0
  9 10  2  0  0  0  0
  9 11  1  0  0  0  0
 11 12  1  0  0  0  0
 11 18  1  0  0  0  0
 12 13  1  0  0  0  0
 12 17  1  0  0  0  0
 13 14  1  0  0  0  0
 14 15  1  0  0  0  0
 15 16  1  0  0  0  0
 16 17  1  0  0  0  0
 18 19  1  0  0  0  0
 18 22  1  0  0  0  0
 19 20  1  0  0  0  0
 20 21  1  0  0  0  0
 21 22  1  0  0  0  0
M  END
>  <Name_Molregno>
557280

>  <Dopamine transporter>
5.53

>  <Norepinephrine transporter>
8.3

>  <Serotonin transporter>
7.8

$$$$
557281
  Marvin  02231216192D 0   1.00000     0.00000     0

 24 26  0  0  1  0  0  0  0  0999 V2000
    0.8514    3.0863    0.0000 F   0  0  0  0  0  0  0  0  0
    0.8514    2.2613    0.0000 C   0  0  0  0  0  0  0  0  0
    0.0264    2.2613    0.0000 F   0  0  0  0  0  0  0  0  0
    1.6764    2.2613    0.0000 F   0  0  0  0  0  0  0  0  0
    0.8514    1.4363    0.0000 C   0  0  0  0  0  0  0  0  0
    1.5659    1.0238    0.0000 C   0  0  0  0  0  0  0  0  0
    1.5659    0.1988    0.0000 C   0  0  0  0  0  0  0  0  0
    0.8514   -0.2137    0.0000 C   0  0  0  0  0  0  0  0  0
    0.1369    0.1988    0.0000 C   0  0  0  0  0  0  0  0  0
    0.1369    1.0238    0.0000 C   0  0  0  0  0  0  0  0  0
   -0.5776    1.4363    0.0000 C   0  0  0  0  0  0  0  0  0
   -0.5776    2.2613    0.0000 O   0  0  0  0  0  0  0  0  0
   -1.2920    1.0238    0.0000 N   0  0  0  0  0  0  0  0  0
   -1.2920    0.1988    0.0000 C   0  0  0  0  0  0  0  0  0
   -0.6246   -0.2862    0.0000 C   0  0  0  0  0  0  0  0  0
   -0.8795   -1.0708    0.0000 C   0  0  0  0  0  0  0  0  0
   -1.7045   -1.0708    0.0000 N   0  0  0  0  0  0  0  0  0
   -1.9595   -0.2862    0.0000 C   0  0  0  0  0  0  0  0  0
   -2.0065    1.4363    0.0000 C   0  0  0  0  0  0  0  0  0
   -2.7210    1.0238    0.0000 C   0  0  0  0  0  0  0  0  0
   -3.4354    1.4363    0.0000 C   0  0  0  0  0  0  0  0  0
   -3.4354    2.2613    0.0000 C   0  0  0  0  0  0  0  0  0
   -2.7210    2.6738    0.0000 C   0  0  0  0  0  0  0  0  0
   -2.0065    2.2613    0.0000 C   0  0  0  0  0  0  0  0  0
  1  2  1  0  0  0  0
  2  3  1  0  0  0  0
  2  4  1  0  0  0  0
  2  5  1  0  0  0  0
  5  6  4  0  0  0  0
  5 10  4  0  0  0  0
  6  7  4  0  0  0  0
  7  8  4  0  0  0  0
  8  9  4  0  0  0  0
  9 10  4  0  0  0  0
 10 11  1  0  0  0  0
 11 12  2  0  0  0  0
 11 13  1  0  0  0  0
 13 14  1  0  0  0  0
 13 19  1  0  0  0  0
 14 15  1  0  0  0  0
 14 18  1  0  0  0  0
 15 16  1  0  0  0  0
 16 17  1  0  0  0  0
 17 18  1  0  0  0  0
 19 20  4  0  0  0  0
 19 24  4  0  0  0  0
 20 21  4  0  0  0  0
 21 22  4  0  0  0  0
 22 23  4  0  0  0  0
 23 24  4  0  0  0  0
M  END
>  <Name_Molregno>
557281

>  <Dopamine transporter>
5.5

>  <Norepinephrine transporter>
7.55

>  <Serotonin transporter>
6.95

$$$$
558956
  Marvin  02231216192D 0   1.00000     0.00000     0

 20 22  0  0  1  0  0  0  0  0999 V2000
   -2.9653   -1.3573    0.0000 Cl  0  0  0  0  0  0  0  0  0
   -2.9653   -0.5323    0.0000 C   0  0  0  0  0  0  0  0  0
   -3.6798   -0.1198    0.0000 C   0  0  0  0  0  0  0  0  0
   -3.6798    0.7052    0.0000 C   0  0  0  0  0  0  0  0  0
   -2.9653    1.1177    0.0000 C   0  0  0  0  0  0  0  0  0
   -2.2509    0.7052    0.0000 C   0  0  0  0  0  0  0  0  0
   -2.2509   -0.1198    0.0000 C   0  0  0  0  0  0  0  0  0
   -1.5364   -0.5323    0.0000 C   0  0  0  0  0  0  0  0  0
   -0.8219   -0.1198    0.0000 O   0  0  0  0  0  0  0  0  0
   -1.5364   -1.3573    0.0000 N   0  0  0  0  0  0  0  0  0
   -2.2509   -1.7698    0.0000 C   0  0  0  0  0  0  0  0  0
   -2.2509   -2.5948    0.0000 C   0  0  0  0  0  0  0  0  0
   -1.6675   -3.1782    0.0000 C   0  0  0  0  0  0  0  0  0
   -2.2509   -3.7615    0.0000 C   0  0  0  0  0  0  0  0  0
   -2.8342   -3.1782    0.0000 C   0  0  0  0  0  0  0  0  0
   -0.8219   -1.7698    0.0000 C   0  0  0  0  0  0  0  0  0
   -0.7357   -2.5903    0.0000 C   0  0  0  0  0  0  0  0  0
    0.0713   -2.7618    0.0000 C   0  0  0  0  0  0  0  0  0
    0.4838   -2.0474    0.0000 N   0  0  0  0  0  0  0  0  0
   -0.0682   -1.4343    0.0000 C   0  0  0  0  0  0  0  0  0
  1  2  1  0  0  0  0
  2  3  4  0  0  0  0
  2  7  4  0  0  0  0
  3  4  4  0  0  0  0
  4  5  4  0  0  0  0
  5  6  4  0  0  0  0
  6  7  4  0  0  0  0
  7  8  1  0  0  0  0
  8  9  2  0  0  0  0
  8 10  1  0  0  0  0
 10 11  1  0  0  0  0
 10 16  1  0  0  0  0
 11 12  1  0  0  0  0
 12 13  1  0  0  0  0
 12 15  1  0  0  0  0
 13 14  1  0  0  0  0
 14 15  1  0  0  0  0
 16 17  1  0  0  0  0
 16 20  1  0  0  0  0
 17 18  1  0  0  0  0
 18 19  1  0  0  0  0
 19 20  1  0  0  0  0
M  END
>  <Name_Molregno>
558956

>  <Dopamine transporter>
5.87

>  <Norepinephrine transporter>
7.72

>  <Serotonin transporter>
7.41

$$$$
558965
  Marvin  02231216192D 0   1.00000     0.00000     0

 20 22  0  0  1  0  0  0  0  0999 V2000
   -2.5913    2.3083    0.0000 S   0  0  0  0  0  0  0  0  0
   -3.3057    2.7208    0.0000 C   0  0  0  0  0  0  0  0  0
   -1.8768    2.7208    0.0000 C   0  0  0  0  0  0  0  0  0
   -1.8768    3.5458    0.0000 C   0  0  0  0  0  0  0  0  0
   -1.1623    3.9583    0.0000 C   0  0  0  0  0  0  0  0  0
   -0.4479    3.5458    0.0000 C   0  0  0  0  0  0  0  0  0
   -0.4479    2.7208    0.0000 C   0  0  0  0  0  0  0  0  0
   -1.1623    2.3083    0.0000 C   0  0  0  0  0  0  0  0  0
   -1.1623    1.4833    0.0000 C   0  0  0  0  0  0  0  0  0
   -1.8768    1.0708    0.0000 O   0  0  0  0  0  0  0  0  0
   -0.4479    1.0708    0.0000 N   0  0  0  0  0  0  0  0  0
   -0.4479    0.2458    0.0000 C   0  0  0  0  0  0  0  0  0
    0.1355   -0.3375    0.0000 C   0  0  0  0  0  0  0  0  0
   -0.4479   -0.9209    0.0000 C   0  0  0  0  0  0  0  0  0
   -1.0312   -0.3375    0.0000 C   0  0  0  0  0  0  0  0  0
    0.2666    1.4833    0.0000 C   0  0  0  0  0  0  0  0  0
    0.3528    2.3038    0.0000 C   0  0  0  0  0  0  0  0  0
    1.1598    2.4753    0.0000 C   0  0  0  0  0  0  0  0  0
    1.5723    1.7609    0.0000 N   0  0  0  0  0  0  0  0  0
    1.0203    1.1478    0.0000 C   0  0  0  0  0  0  0  0  0
  1  2  1  0  0  0  0
  1  3  1  0  0  0  0
  3  4  4  0  0  0  0
  3  8  4  0  0  0  0
  4  5  4  0  0  0  0
  5  6  4  0  0  0  0
  6  7  4  0  0  0  0
  7  8  4  0  0  0  0
  8  9  1  0  0  0  0
  9 10  2  0  0  0  0
  9 11  1  0  0  0  0
 11 12  1  0  0  0  0
 11 16  1  0  0  0  0
 12 13  1  0  0  0  0
 12 15  1  0  0  0  0
 13 14  1  0  0  0  0
 14 15  1  0  0  0  0
 16 17  1  0  0  0  0
 16 20  1  0  0  0  0
 17 18  1  0  0  0  0
 18 19  1  0  0  0  0
 19 20  1  0  0  0  0
M  END
>  <Name_Molregno>
558965

>  <Dopamine transporter>
5

>  <Norepinephrine transporter>
7.8

>  <Serotonin transporter>
7.21

$$$$
558980
  Marvin  02231216192D 0   1.00000     0.00000     0

 22 24  0  0  1  0  0  0  0  0999 V2000
   -3.2300   -1.7345    0.0000 F   0  0  0  0  0  0  0  0  0
   -3.2300   -0.9095    0.0000 C   0  0  0  0  0  0  0  0  0
   -2.4050   -0.9095    0.0000 F   0  0  0  0  0  0  0  0  0
   -4.0550   -0.9095    0.0000 F   0  0  0  0  0  0  0  0  0
   -3.2300   -0.0845    0.0000 C   0  0  0  0  0  0  0  0  0
   -3.9444    0.3280    0.0000 C   0  0  0  0  0  0  0  0  0
   -3.9444    1.1530    0.0000 C   0  0  0  0  0  0  0  0  0
   -3.2300    1.5655    0.0000 C   0  0  0  0  0  0  0  0  0
   -2.5155    1.1530    0.0000 C   0  0  0  0  0  0  0  0  0
   -2.5155    0.3280    0.0000 C   0  0  0  0  0  0  0  0  0
   -1.8010   -0.0845    0.0000 C   0  0  0  0  0  0  0  0  0
   -1.0866    0.3280    0.0000 O   0  0  0  0  0  0  0  0  0
   -1.8010   -0.9095    0.0000 N   0  0  0  0  0  0  0  0  0
   -2.5155   -1.3220    0.0000 C   0  0  0  0  0  0  0  0  0
   -2.5155   -2.1470    0.0000 C   0  0  0  0  0  0  0  0  0
   -2.1030   -2.8614    0.0000 C   0  0  0  0  0  0  0  0  0
   -2.9280   -2.8614    0.0000 C   0  0  0  0  0  0  0  0  0
   -1.0866   -1.3220    0.0000 C   0  0  0  0  0  0  0  0  0
   -1.0003   -2.1424    0.0000 C   0  0  0  0  0  0  0  0  0
   -0.1934   -2.3140    0.0000 C   0  0  0  0  0  0  0  0  0
    0.2191   -1.5995    0.0000 N   0  0  0  0  0  0  0  0  0
   -0.3329   -0.9864    0.0000 C   0  0  0  0  0  0  0  0  0
  1  2  1  0  0  0  0
  2  3  1  0  0  0  0
  2  4  1  0  0  0  0
  2  5  1  0  0  0  0
  5  6  4  0  0  0  0
  5 10  4  0  0  0  0
  6  7  4  0  0  0  0
  7  8  4  0  0  0  0
  8  9  4  0  0  0  0
  9 10  4  0  0  0  0
 10 11  1  0  0  0  0
 11 12  2  0  0  0  0
 11 13  1  0  0  0  0
 13 14  1  0  0  0  0
 13 18  1  0  0  0  0
 14 15  1  0  0  0  0
 15 16  1  0  0  0  0
 15 17  1  0  0  0  0
 16 17  1  0  0  0  0
 18 19  1  0  0  0  0
 18 22  1  0  0  0  0
 19 20  1  0  0  0  0
 20 21  1  0  0  0  0
 21 22  1  0  0  0  0
M  END
>  <Name_Molregno>
558980

>  <Dopamine transporter>
5

>  <Norepinephrine transporter>
7.52

>  <Serotonin transporter>
6.24

$$$$
559013
  Marvin  02231216192D 0   1.00000     0.00000     0

 23 25  0  0  1  0  0  0  0  0999 V2000
   -2.1926   -0.6605    0.0000 F   0  0  0  0  0  0  0  0  0
   -2.1926    0.1645    0.0000 C   0  0  0  0  0  0  0  0  0
   -1.3676    0.1645    0.0000 F   0  0  0  0  0  0  0  0  0
   -3.0176    0.1645    0.0000 F   0  0  0  0  0  0  0  0  0
   -2.1926    0.9895    0.0000 C   0  0  0  0  0  0  0  0  0
   -2.9071    1.4020    0.0000 C   0  0  0  0  0  0  0  0  0
   -2.9071    2.2270    0.0000 C   0  0  0  0  0  0  0  0  0
   -2.1926    2.6395    0.0000 C   0  0  0  0  0  0  0  0  0
   -1.4781    2.2270    0.0000 C   0  0  0  0  0  0  0  0  0
   -1.4781    1.4020    0.0000 C   0  0  0  0  0  0  0  0  0
   -0.7637    0.9895    0.0000 C   0  0  0  0  0  0  0  0  0
   -0.0492    1.4020    0.0000 N   0  0  0  0  0  0  0  0  0
    0.6653    0.9895    0.0000 C   0  0  0  0  0  0  0  0  0
    1.3798    1.4020    0.0000 O   0  0  0  0  0  0  0  0  0
    0.6653    0.1645    0.0000 C   0  0  0  0  0  0  0  0  0
    1.2486   -0.4188    0.0000 C   0  0  0  0  0  0  0  0  0
    0.6653   -1.0022    0.0000 C   0  0  0  0  0  0  0  0  0
    0.0819   -0.4188    0.0000 C   0  0  0  0  0  0  0  0  0
   -0.0492    2.2270    0.0000 C   0  0  0  0  0  0  0  0  0
   -0.7166    2.7120    0.0000 C   0  0  0  0  0  0  0  0  0
   -0.4617    3.4966    0.0000 C   0  0  0  0  0  0  0  0  0
    0.3633    3.4966    0.0000 N   0  0  0  0  0  0  0  0  0
    0.6183    2.7120    0.0000 C   0  0  0  0  0  0  0  0  0
  1  2  1  0  0  0  0
  2  3  1  0  0  0  0
  2  4  1  0  0  0  0
  2  5  1  0  0  0  0
  5  6  4  0  0  0  0
  5 10  4  0  0  0  0
  6  7  4  0  0  0  0
  7  8  4  0  0  0  0
  8  9  4  0  0  0  0
  9 10  4  0  0  0  0
 10 11  1  0  0  0  0
 11 12  1  0  0  0  0
 12 13  1  0  0  0  0
 12 19  1  0  0  0  0
 13 14  2  0  0  0  0
 13 15  1  0  0  0  0
 15 16  1  0  0  0  0
 15 18  1  0  0  0  0
 16 17  1  0  0  0  0
 17 18  1  0  0  0  0
 19 20  1  0  0  0  0
 19 23  1  0  0  0  0
 20 21  1  0  0  0  0
 21 22  1  0  0  0  0
 22 23  1  0  0  0  0
M  END
>  <Name_Molregno>
559013

>  <Dopamine transporter>
5

>  <Norepinephrine transporter>
6.83

>  <Serotonin transporter>
6.73

$$$$
560749
  Marvin  02231216192D 0   1.00000     0.00000     0

 24 26  0  0  1  0  0  0  0  0999 V2000
    0.5472    0.3837    0.0000 O   0  0  0  0  0  0  0  0  0
    0.5472   -0.4413    0.0000 C   0  0  0  0  0  0  0  0  0
    1.2616   -0.8538    0.0000 N   0  0  0  0  0  0  0  0  0
    1.9761   -0.4413    0.0000 C   0  0  0  0  0  0  0  0  0
    2.6906   -0.8538    0.0000 C   0  0  0  0  0  0  0  0  0
    3.4051   -0.4413    0.0000 C   0  0  0  0  0  0  0  0  0
    2.6906   -1.6788    0.0000 C   0  0  0  0  0  0  0  0  0
    1.2616   -1.6788    0.0000 C   0  0  0  0  0  0  0  0  0
    1.9291   -2.1637    0.0000 C   0  0  0  0  0  0  0  0  0
    1.6741   -2.9483    0.0000 C   0  0  0  0  0  0  0  0  0
    0.8491   -2.9483    0.0000 N   0  0  0  0  0  0  0  0  0
    0.5942   -2.1637    0.0000 C   0  0  0  0  0  0  0  0  0
   -0.1673   -0.8538    0.0000 C   0  0  0  0  0  0  0  0  0
   -0.1673   -1.6788    0.0000 C   0  0  0  0  0  0  0  0  0
   -0.8818   -2.0913    0.0000 C   0  0  0  0  0  0  0  0  0
   -1.5962   -1.6788    0.0000 C   0  0  0  0  0  0  0  0  0
   -1.5962   -0.8538    0.0000 C   0  0  0  0  0  0  0  0  0
   -0.8818   -0.4413    0.0000 C   0  0  0  0  0  0  0  0  0
   -0.8818    0.3837    0.0000 C   0  0  0  0  0  0  0  0  0
   -1.5962    0.7962    0.0000 C   0  0  0  0  0  0  0  0  0
   -1.5962    1.6212    0.0000 C   0  0  0  0  0  0  0  0  0
   -0.8818    2.0337    0.0000 C   0  0  0  0  0  0  0  0  0
   -0.1673    1.6212    0.0000 C   0  0  0  0  0  0  0  0  0
   -0.1673    0.7962    0.0000 C   0  0  0  0  0  0  0  0  0
  1  2  2  0  0  0  0
  2  3  1  0  0  0  0
  2 13  1  0  0  0  0
  3  4  1  0  0  0  0
  3  8  1  0  0  0  0
  4  5  1  0  0  0  0
  5  6  1  0  0  0  0
  5  7  1  0  0  0  0
  8  9  1  0  0  0  0
  8 12  1  0  0  0  0
  9 10  1  0  0  0  0
 10 11  1  0  0  0  0
 11 12  1  0  0  0  0
 13 14  4  0  0  0  0
 13 18  4  0  0  0  0
 14 15  4  0  0  0  0
 15 16  4  0  0  0  0
 16 17  4  0  0  0  0
 17 18  4  0  0  0  0
 18 19  1  0  0  0  0
 19 20  4  0  0  0  0
 19 24  4  0  0  0  0
 20 21  4  0  0  0  0
 21 22  4  0  0  0  0
 22 23  4  0  0  0  0
 23 24  4  0  0  0  0
M  END
>  <Name_Molregno>
560749

>  <Dopamine transporter>
5

>  <Norepinephrine transporter>
6.53

>  <Serotonin transporter>
6.18

$$$$
560762
  Marvin  02231216192D 0   1.00000     0.00000     0

 22 24  0  0  1  0  0  0  0  0999 V2000
    0.2244   -2.2448    0.0000 O   0  0  0  0  0  0  0  0  0
    0.2244   -1.4198    0.0000 C   0  0  0  0  0  0  0  0  0
   -0.4901   -1.0073    0.0000 N   0  0  0  0  0  0  0  0  0
   -1.2046   -1.4198    0.0000 C   0  0  0  0  0  0  0  0  0
   -1.2046   -2.2448    0.0000 C   0  0  0  0  0  0  0  0  0
   -0.6212   -2.8282    0.0000 C   0  0  0  0  0  0  0  0  0
   -1.2046   -3.4115    0.0000 C   0  0  0  0  0  0  0  0  0
   -1.7879   -2.8282    0.0000 C   0  0  0  0  0  0  0  0  0
   -0.4901   -0.1823    0.0000 C   0  0  0  0  0  0  0  0  0
   -1.1576    0.3026    0.0000 C   0  0  0  0  0  0  0  0  0
   -0.9026    1.0872    0.0000 C   0  0  0  0  0  0  0  0  0
   -0.0776    1.0872    0.0000 N   0  0  0  0  0  0  0  0  0
    0.1773    0.3026    0.0000 C   0  0  0  0  0  0  0  0  0
    0.9388   -1.0073    0.0000 C   0  0  0  0  0  0  0  0  0
    0.9388   -0.1823    0.0000 C   0  0  0  0  0  0  0  0  0
    1.6533    0.2302    0.0000 C   0  0  0  0  0  0  0  0  0
    2.3678   -0.1823    0.0000 C   0  0  0  0  0  0  0  0  0
    2.3678   -1.0073    0.0000 C   0  0  0  0  0  0  0  0  0
    1.6533   -1.4198    0.0000 C   0  0  0  0  0  0  0  0  0
    1.6533   -2.2448    0.0000 C   0  0  0  0  0  0  0  0  0
    2.3678   -2.6573    0.0000 C   0  0  0  0  0  0  0  0  0
    0.9388   -2.6573    0.0000 C   0  0  0  0  0  0  0  0  0
  1  2  2  0  0  0  0
  2  3  1  0  0  0  0
  2 14  1  0  0  0  0
  3  4  1  0  0  0  0
  3  9  1  0  0  0  0
  4  5  1  0  0  0  0
  5  6  1  0  0  0  0
  5  8  1  0  0  0  0
  6  7  1  0  0  0  0
  7  8  1  0  0  0  0
  9 10  1  0  0  0  0
  9 13  1  0  0  0  0
 10 11  1  0  0  0  0
 11 12  1  0  0  0  0
 12 13  1  0  0  0  0
 14 15  4  0  0  0  0
 14 19  4  0  0  0  0
 15 16  4  0  0  0  0
 16 17  4  0  0  0  0
 17 18  4  0  0  0  0
 18 19  4  0  0  0  0
 19 20  1  0  0  0  0
 20 21  1  0  0  0  0
 20 22  1  0  0  0  0
M  END
>  <Name_Molregno>
560762

>  <Dopamine transporter>
5.6

>  <Norepinephrine transporter>
7.04

>  <Serotonin transporter>
5.89

$$$$
560763
  Marvin  02231216192D 0   1.00000     0.00000     0

 26 29  0  0  1  0  0  0  0  0999 V2000
   -1.7936    1.2344    0.0000 O   0  0  0  0  0  0  0  0  0
   -1.0791    0.8219    0.0000 C   0  0  0  0  0  0  0  0  0
   -0.3647    1.2344    0.0000 C   0  0  0  0  0  0  0  0  0
    0.3498    0.8219    0.0000 C   0  0  0  0  0  0  0  0  0
    0.3498   -0.0031    0.0000 C   0  0  0  0  0  0  0  0  0
   -0.3647   -0.4156    0.0000 C   0  0  0  0  0  0  0  0  0
   -1.0791   -0.0031    0.0000 C   0  0  0  0  0  0  0  0  0
   -1.7936   -0.4156    0.0000 C   0  0  0  0  0  0  0  0  0
   -2.5081   -0.0031    0.0000 O   0  0  0  0  0  0  0  0  0
   -1.7936   -1.2406    0.0000 N   0  0  0  0  0  0  0  0  0
   -2.5081   -1.6531    0.0000 C   0  0  0  0  0  0  0  0  0
   -2.5081   -2.4781    0.0000 C   0  0  0  0  0  0  0  0  0
   -1.9247   -3.0615    0.0000 C   0  0  0  0  0  0  0  0  0
   -2.5081   -3.6448    0.0000 C   0  0  0  0  0  0  0  0  0
   -3.0914   -3.0615    0.0000 C   0  0  0  0  0  0  0  0  0
   -1.0791   -1.6531    0.0000 C   0  0  0  0  0  0  0  0  0
   -0.3255   -1.3175    0.0000 C   0  0  0  0  0  0  0  0  0
    0.2266   -1.9306    0.0000 C   0  0  0  0  0  0  0  0  0
   -0.1859   -2.6451    0.0000 N   0  0  0  0  0  0  0  0  0
   -0.9929   -2.4736    0.0000 C   0  0  0  0  0  0  0  0  0
   -1.7936    2.0594    0.0000 C   0  0  0  0  0  0  0  0  0
   -2.5081    2.4719    0.0000 C   0  0  0  0  0  0  0  0  0
   -2.5081    3.2969    0.0000 C   0  0  0  0  0  0  0  0  0
   -1.7936    3.7094    0.0000 C   0  0  0  0  0  0  0  0  0
   -1.0791    3.2969    0.0000 C   0  0  0  0  0  0  0  0  0
   -1.0791    2.4719    0.0000 C   0  0  0  0  0  0  0  0  0
  1  2  1  0  0  0  0
  1 21  1  0  0  0  0
  2  3  4  0  0  0  0
  2  7  4  0  0  0  0
  3  4  4  0  0  0  0
  4  5  4  0  0  0  0
  5  6  4  0  0  0  0
  6  7  4  0  0  0  0
  7  8  1  0  0  0  0
  8  9  2  0  0  0  0
  8 10  1  0  0  0  0
 10 11  1  0  0  0  0
 10 16  1  0  0  0  0
 11 12  1  0  0  0  0
 12 13  1  0  0  0  0
 12 15  1  0  0  0  0
 13 14  1  0  0  0  0
 14 15  1  0  0  0  0
 16 17  1  0  0  0  0
 16 20  1  0  0  0  0
 17 18  1  0  0  0  0
 18 19  1  0  0  0  0
 19 20  1  0  0  0  0
 21 22  4  0  0  0  0
 21 26  4  0  0  0  0
 22 23  4  0  0  0  0
 23 24  4  0  0  0  0
 24 25  4  0  0  0  0
 25 26  4  0  0  0  0
M  END
>  <Name_Molregno>
560763

>  <Dopamine transporter>
5.19

>  <Norepinephrine transporter>
7.78

>  <Serotonin transporter>
6.53

$$$$
560770
  Marvin  02231216192D 0   1.00000     0.00000     0

 21 22  0  0  1  0  0  0  0  0999 V2000
   -2.5214   -1.9024    0.0000 F   0  0  0  0  0  0  0  0  0
   -1.8069   -1.4899    0.0000 C   0  0  0  0  0  0  0  0  0
   -1.3944   -2.2044    0.0000 F   0  0  0  0  0  0  0  0  0
   -2.2194   -0.7754    0.0000 F   0  0  0  0  0  0  0  0  0
   -1.0924   -1.0774    0.0000 C   0  0  0  0  0  0  0  0  0
   -1.0924   -0.2524    0.0000 C   0  0  0  0  0  0  0  0  0
   -0.3780    0.1601    0.0000 C   0  0  0  0  0  0  0  0  0
    0.3365   -0.2524    0.0000 C   0  0  0  0  0  0  0  0  0
    0.3365   -1.0774    0.0000 C   0  0  0  0  0  0  0  0  0
   -0.3780   -1.4899    0.0000 C   0  0  0  0  0  0  0  0  0
   -0.3780   -2.3149    0.0000 C   0  0  0  0  0  0  0  0  0
   -1.0924   -2.7274    0.0000 O   0  0  0  0  0  0  0  0  0
    0.3365   -2.7274    0.0000 N   0  0  0  0  0  0  0  0  0
    1.0510   -2.3149    0.0000 C   0  0  0  0  0  0  0  0  0
    1.7655   -2.7274    0.0000 C   0  0  0  0  0  0  0  0  0
    1.0510   -1.4899    0.0000 C   0  0  0  0  0  0  0  0  0
    0.3365   -3.5524    0.0000 C   0  0  0  0  0  0  0  0  0
    1.0039   -4.0373    0.0000 C   0  0  0  0  0  0  0  0  0
    0.7490   -4.8219    0.0000 C   0  0  0  0  0  0  0  0  0
   -0.0760   -4.8219    0.0000 N   0  0  0  0  0  0  0  0  0
   -0.3309   -4.0373    0.0000 C   0  0  0  0  0  0  0  0  0
  1  2  1  0  0  0  0
  2  3  1  0  0  0  0
  2  4  1  0  0  0  0
  2  5  1  0  0  0  0
  5  6  4  0  0  0  0
  5 10  4  0  0  0  0
  6  7  4  0  0  0  0
  7  8  4  0  0  0  0
  8  9  4  0  0  0  0
  9 10  4  0  0  0  0
 10 11  1  0  0  0  0
 11 12  2  0  0  0  0
 11 13  1  0  0  0  0
 13 14  1  0  0  0  0
 13 17  1  0  0  0  0
 14 15  1  0  0  0  0
 14 16  1  0  0  0  0
 17 18  1  0  0  0  0
 17 21  1  0  0  0  0
 18 19  1  0  0  0  0
 19 20  1  0  0  0  0
 20 21  1  0  0  0  0
M  END
>  <Name_Molregno>
560770

>  <Dopamine transporter>
5

>  <Norepinephrine transporter>
6.76

>  <Serotonin transporter>
6.34

$$$$
560782
  Marvin  02231216192D 0   1.00000     0.00000     0

 21 23  0  0  1  0  0  0  0  0999 V2000
    0.0606   -2.2598    0.0000 O   0  0  0  0  0  0  0  0  0
    0.0606   -1.4348    0.0000 C   0  0  0  0  0  0  0  0  0
   -0.6538   -1.0223    0.0000 N   0  0  0  0  0  0  0  0  0
   -1.3683   -1.4348    0.0000 C   0  0  0  0  0  0  0  0  0
   -1.3683   -2.2598    0.0000 C   0  0  0  0  0  0  0  0  0
   -0.9558   -2.9742    0.0000 C   0  0  0  0  0  0  0  0  0
   -1.7808   -2.9742    0.0000 C   0  0  0  0  0  0  0  0  0
   -0.6538   -0.1973    0.0000 C   0  0  0  0  0  0  0  0  0
   -1.3213    0.2877    0.0000 C   0  0  0  0  0  0  0  0  0
   -1.0663    1.0723    0.0000 C   0  0  0  0  0  0  0  0  0
   -0.2413    1.0723    0.0000 N   0  0  0  0  0  0  0  0  0
    0.0136    0.2877    0.0000 C   0  0  0  0  0  0  0  0  0
    0.7751   -1.0223    0.0000 C   0  0  0  0  0  0  0  0  0
    0.7751   -0.1973    0.0000 C   0  0  0  0  0  0  0  0  0
    1.4896    0.2152    0.0000 C   0  0  0  0  0  0  0  0  0
    2.2041   -0.1973    0.0000 C   0  0  0  0  0  0  0  0  0
    2.2041   -1.0223    0.0000 C   0  0  0  0  0  0  0  0  0
    1.4896   -1.4348    0.0000 C   0  0  0  0  0  0  0  0  0
    1.4896   -2.2598    0.0000 C   0  0  0  0  0  0  0  0  0
    2.2041   -2.6723    0.0000 C   0  0  0  0  0  0  0  0  0
    0.7751   -2.6723    0.0000 C   0  0  0  0  0  0  0  0  0
  1  2  2  0  0  0  0
  2  3  1  0  0  0  0
  2 13  1  0  0  0  0
  3  4  1  0  0  0  0
  3  8  1  0  0  0  0
  4  5  1  0  0  0  0
  5  6  1  0  0  0  0
  5  7  1  0  0  0  0
  6  7  1  0  0  0  0
  8  9  1  0  0  0  0
  8 12  1  0  0  0  0
  9 10  1  0  0  0  0
 10 11  1  0  0  0  0
 11 12  1  0  0  0  0
 13 14  4  0  0  0  0
 13 18  4  0  0  0  0
 14 15  4  0  0  0  0
 15 16  4  0  0  0  0
 16 17  4  0  0  0  0
 17 18  4  0  0  0  0
 18 19  1  0  0  0  0
 19 20  1  0  0  0  0
 19 21  1  0  0  0  0
M  END
>  <Name_Molregno>
560782

>  <Dopamine transporter>
5

>  <Norepinephrine transporter>
7.51

>  <Serotonin transporter>
5.54

$$$$
560783
  Marvin  02231216192D 0   1.00000     0.00000     0

 22 24  0  0  1  0  0  0  0  0999 V2000
    1.1812   -1.7679    0.0000 O   0  0  0  0  0  0  0  0  0
    0.4667   -1.3554    0.0000 C   0  0  0  0  0  0  0  0  0
   -0.2478   -1.7679    0.0000 N   0  0  0  0  0  0  0  0  0
   -0.2478   -2.5929    0.0000 C   0  0  0  0  0  0  0  0  0
    0.4197   -3.0778    0.0000 C   0  0  0  0  0  0  0  0  0
    0.1647   -3.8624    0.0000 C   0  0  0  0  0  0  0  0  0
   -0.6603   -3.8624    0.0000 C   0  0  0  0  0  0  0  0  0
   -0.9152   -3.0778    0.0000 C   0  0  0  0  0  0  0  0  0
   -0.9622   -1.3554    0.0000 C   0  0  0  0  0  0  0  0  0
   -1.7159   -1.6909    0.0000 C   0  0  0  0  0  0  0  0  0
   -2.2679   -1.0778    0.0000 C   0  0  0  0  0  0  0  0  0
   -1.8554   -0.3633    0.0000 N   0  0  0  0  0  0  0  0  0
   -1.0485   -0.5349    0.0000 C   0  0  0  0  0  0  0  0  0
    0.4667   -0.5304    0.0000 C   0  0  0  0  0  0  0  0  0
   -0.2478   -0.1179    0.0000 C   0  0  0  0  0  0  0  0  0
   -0.2478    0.7071    0.0000 C   0  0  0  0  0  0  0  0  0
    0.4667    1.1196    0.0000 C   0  0  0  0  0  0  0  0  0
    1.1812    0.7071    0.0000 C   0  0  0  0  0  0  0  0  0
    1.1812   -0.1179    0.0000 C   0  0  0  0  0  0  0  0  0
    1.8956   -0.5304    0.0000 C   0  0  0  0  0  0  0  0  0
    2.6101   -0.1179    0.0000 C   0  0  0  0  0  0  0  0  0
    1.8956   -1.3554    0.0000 C   0  0  0  0  0  0  0  0  0
  1  2  2  0  0  0  0
  2  3  1  0  0  0  0
  2 14  1  0  0  0  0
  3  4  1  0  0  0  0
  3  9  1  0  0  0  0
  4  5  1  0  0  0  0
  4  8  1  0  0  0  0
  5  6  1  0  0  0  0
  6  7  1  0  0  0  0
  7  8  1  0  0  0  0
  9 10  1  0  0  0  0
  9 13  1  0  0  0  0
 10 11  1  0  0  0  0
 11 12  1  0  0  0  0
 12 13  1  0  0  0  0
 14 15  4  0  0  0  0
 14 19  4  0  0  0  0
 15 16  4  0  0  0  0
 16 17  4  0  0  0  0
 17 18  4  0  0  0  0
 18 19  4  0  0  0  0
 19 20  1  0  0  0  0
 20 21  1  0  0  0  0
 20 22  1  0  0  0  0
M  END
>  <Name_Molregno>
560783

>  <Dopamine transporter>
5

>  <Norepinephrine transporter>
7.49

>  <Serotonin transporter>
6.18

$$$$
560784
  Marvin  02231216192D 0   1.00000     0.00000     0

 23 25  0  0  1  0  0  0  0  0999 V2000
    0.9496   -1.8759    0.0000 O   0  0  0  0  0  0  0  0  0
    0.9496   -1.0509    0.0000 C   0  0  0  0  0  0  0  0  0
    0.2352   -0.6384    0.0000 N   0  0  0  0  0  0  0  0  0
   -0.4793   -1.0509    0.0000 C   0  0  0  0  0  0  0  0  0
   -0.4793   -1.8759    0.0000 C   0  0  0  0  0  0  0  0  0
    0.1881   -2.3608    0.0000 C   0  0  0  0  0  0  0  0  0
   -0.0668   -3.1454    0.0000 C   0  0  0  0  0  0  0  0  0
   -0.8918   -3.1454    0.0000 C   0  0  0  0  0  0  0  0  0
   -1.1467   -2.3608    0.0000 C   0  0  0  0  0  0  0  0  0
    0.2352    0.1866    0.0000 C   0  0  0  0  0  0  0  0  0
   -0.4323    0.6715    0.0000 C   0  0  0  0  0  0  0  0  0
   -0.1773    1.4562    0.0000 C   0  0  0  0  0  0  0  0  0
    0.6477    1.4562    0.0000 N   0  0  0  0  0  0  0  0  0
    0.9026    0.6715    0.0000 C   0  0  0  0  0  0  0  0  0
    1.6641   -0.6384    0.0000 C   0  0  0  0  0  0  0  0  0
    1.6641    0.1866    0.0000 C   0  0  0  0  0  0  0  0  0
    2.3786    0.5991    0.0000 C   0  0  0  0  0  0  0  0  0
    3.0930    0.1866    0.0000 C   0  0  0  0  0  0  0  0  0
    3.0930   -0.6384    0.0000 C   0  0  0  0  0  0  0  0  0
    2.3786   -1.0509    0.0000 C   0  0  0  0  0  0  0  0  0
    2.3786   -1.8759    0.0000 C   0  0  0  0  0  0  0  0  0
    3.0930   -2.2884    0.0000 C   0  0  0  0  0  0  0  0  0
    1.6641   -2.2884    0.0000 C   0  0  0  0  0  0  0  0  0
  1  2  2  0  0  0  0
  2  3  1  0  0  0  0
  2 15  1  0  0  0  0
  3  4  1  0  0  0  0
  3 10  1  0  0  0  0
  4  5  1  0  0  0  0
  5  6  1  0  0  0  0
  5  9  1  0  0  0  0
  6  7  1  0  0  0  0
  7  8  1  0  0  0  0
  8  9  1  0  0  0  0
 10 11  1  0  0  0  0
 10 14  1  0  0  0  0
 11 12  1  0  0  0  0
 12 13  1  0  0  0  0
 13 14  1  0  0  0  0
 15 16  4  0  0  0  0
 15 20  4  0  0  0  0
 16 17  4  0  0  0  0
 17 18  4  0  0  0  0
 18 19  4  0  0  0  0
 19 20  4  0  0  0  0
 20 21  1  0  0  0  0
 21 22  1  0  0  0  0
 21 23  1  0  0  0  0
M  END
>  <Name_Molregno>
560784

>  <Dopamine transporter>
5.46

>  <Norepinephrine transporter>
7.74

>  <Serotonin transporter>
6.48

$$$$
560798
  Marvin  02231216192D 0   1.00000     0.00000     0

 23 25  0  0  1  0  0  0  0  0999 V2000
   -1.7793    0.3152    0.0000 F   0  0  0  0  0  0  0  0  0
   -1.7793    1.1402    0.0000 C   0  0  0  0  0  0  0  0  0
   -0.9543    1.1402    0.0000 F   0  0  0  0  0  0  0  0  0
   -2.6043    1.1402    0.0000 F   0  0  0  0  0  0  0  0  0
   -1.7793    1.9652    0.0000 C   0  0  0  0  0  0  0  0  0
   -2.4938    2.3777    0.0000 C   0  0  0  0  0  0  0  0  0
   -2.4938    3.2027    0.0000 C   0  0  0  0  0  0  0  0  0
   -1.7793    3.6152    0.0000 C   0  0  0  0  0  0  0  0  0
   -1.0648    3.2027    0.0000 C   0  0  0  0  0  0  0  0  0
   -1.0648    2.3777    0.0000 C   0  0  0  0  0  0  0  0  0
   -0.3503    1.9652    0.0000 C   0  0  0  0  0  0  0  0  0
    0.3641    2.3777    0.0000 O   0  0  0  0  0  0  0  0  0
   -0.3503    1.1402    0.0000 N   0  0  0  0  0  0  0  0  0
   -1.0648    0.7277    0.0000 C   0  0  0  0  0  0  0  0  0
   -1.0648   -0.0973    0.0000 C   0  0  0  0  0  0  0  0  0
   -0.4815   -0.6806    0.0000 C   0  0  0  0  0  0  0  0  0
   -1.0648   -1.2640    0.0000 C   0  0  0  0  0  0  0  0  0
   -1.6482   -0.6806    0.0000 C   0  0  0  0  0  0  0  0  0
    0.3641    0.7277    0.0000 C   0  0  0  0  0  0  0  0  0
    0.4504   -0.0928    0.0000 C   0  0  0  0  0  0  0  0  0
    1.2573   -0.2643    0.0000 C   0  0  0  0  0  0  0  0  0
    1.6698    0.4502    0.0000 N   0  0  0  0  0  0  0  0  0
    1.1178    1.0633    0.0000 C   0  0  0  0  0  0  0  0  0
  1  2  1  0  0  0  0
  2  3  1  0  0  0  0
  2  4  1  0  0  0  0
  2  5  1  0  0  0  0
  5  6  4  0  0  0  0
  5 10  4  0  0  0  0
  6  7  4  0  0  0  0
  7  8  4  0  0  0  0
  8  9  4  0  0  0  0
  9 10  4  0  0  0  0
 10 11  1  0  0  0  0
 11 12  2  0  0  0  0
 11 13  1  0  0  0  0
 13 14  1  0  0  0  0
 13 19  1  0  0  0  0
 14 15  1  0  0  0  0
 15 16  1  0  0  0  0
 15 18  1  0  0  0  0
 16 17  1  0  0  0  0
 17 18  1  0  0  0  0
 19 20  1  0  0  0  0
 19 23  1  0  0  0  0
 20 21  1  0  0  0  0
 21 22  1  0  0  0  0
 22 23  1  0  0  0  0
M  END
>  <Name_Molregno>
560798

>  <Dopamine transporter>
5.52

>  <Muscarinic acetylcholine receptor M4>
5.37

>  <Muscarinic acetylcholine receptor M5>
5.74

>  <Norepinephrine transporter>
7.09

>  <Serotonin transporter>
6.22

$$$$
562579
  Marvin  02231216192D 0   1.00000     0.00000     0

 21 23  0  0  1  0  0  0  0  0999 V2000
   -3.1513    0.2221    0.0000 S   0  0  0  0  0  0  0  0  0
   -3.8657   -0.1904    0.0000 C   0  0  0  0  0  0  0  0  0
   -3.1513    1.0471    0.0000 C   0  0  0  0  0  0  0  0  0
   -3.8657    1.4596    0.0000 C   0  0  0  0  0  0  0  0  0
   -3.8657    2.2846    0.0000 C   0  0  0  0  0  0  0  0  0
   -3.1513    2.6971    0.0000 C   0  0  0  0  0  0  0  0  0
   -2.4368    2.2846    0.0000 C   0  0  0  0  0  0  0  0  0
   -2.4368    1.4596    0.0000 C   0  0  0  0  0  0  0  0  0
   -1.7223    1.0471    0.0000 C   0  0  0  0  0  0  0  0  0
   -1.0078    1.4596    0.0000 O   0  0  0  0  0  0  0  0  0
   -1.7223    0.2221    0.0000 N   0  0  0  0  0  0  0  0  0
   -2.4368   -0.1904    0.0000 C   0  0  0  0  0  0  0  0  0
   -2.4368   -1.0154    0.0000 C   0  0  0  0  0  0  0  0  0
   -1.8534   -1.5988    0.0000 C   0  0  0  0  0  0  0  0  0
   -2.4368   -2.1822    0.0000 C   0  0  0  0  0  0  0  0  0
   -3.0201   -1.5988    0.0000 C   0  0  0  0  0  0  0  0  0
   -1.0078   -0.1904    0.0000 C   0  0  0  0  0  0  0  0  0
   -0.9216   -1.0109    0.0000 C   0  0  0  0  0  0  0  0  0
   -0.1146   -1.1824    0.0000 C   0  0  0  0  0  0  0  0  0
    0.2979   -0.4680    0.0000 N   0  0  0  0  0  0  0  0  0
   -0.2542    0.1451    0.0000 C   0  0  0  0  0  0  0  0  0
  1  2  1  0  0  0  0
  1  3  1  0  0  0  0
  3  4  4  0  0  0  0
  3  8  4  0  0  0  0
  4  5  4  0  0  0  0
  5  6  4  0  0  0  0
  6  7  4  0  0  0  0
  7  8  4  0  0  0  0
  8  9  1  0  0  0  0
  9 10  2  0  0  0  0
  9 11  1  0  0  0  0
 11 12  1  0  0  0  0
 11 17  1  0  0  0  0
 12 13  1  0  0  0  0
 13 14  1  0  0  0  0
 13 16  1  0  0  0  0
 14 15  1  0  0  0  0
 15 16  1  0  0  0  0
 17 18  1  0  0  0  0
 17 21  1  0  0  0  0
 18 19  1  0  0  0  0
 19 20  1  0  0  0  0
 20 21  1  0  0  0  0
M  END
>  <Name_Molregno>
562579

>  <Dopamine transporter>
5.49

>  <Norepinephrine transporter>
7.17

>  <Serotonin transporter>
6.36

$$$$
562580
  Marvin  02231216192D 0   1.00000     0.00000     0

 22 24  0  0  1  0  0  0  0  0999 V2000
   -2.9209    0.2354    0.0000 O   0  0  0  0  0  0  0  0  0
   -3.6354   -0.1771    0.0000 C   0  0  0  0  0  0  0  0  0
   -3.6354   -1.0021    0.0000 C   0  0  0  0  0  0  0  0  0
   -2.9209    1.0604    0.0000 C   0  0  0  0  0  0  0  0  0
   -3.6354    1.4729    0.0000 C   0  0  0  0  0  0  0  0  0
   -3.6354    2.2979    0.0000 C   0  0  0  0  0  0  0  0  0
   -2.9209    2.7104    0.0000 C   0  0  0  0  0  0  0  0  0
   -2.2064    2.2979    0.0000 C   0  0  0  0  0  0  0  0  0
   -2.2064    1.4729    0.0000 C   0  0  0  0  0  0  0  0  0
   -1.4920    1.0604    0.0000 C   0  0  0  0  0  0  0  0  0
   -0.7775    1.4729    0.0000 O   0  0  0  0  0  0  0  0  0
   -1.4920    0.2354    0.0000 N   0  0  0  0  0  0  0  0  0
   -2.2064   -0.1771    0.0000 C   0  0  0  0  0  0  0  0  0
   -2.2064   -1.0021    0.0000 C   0  0  0  0  0  0  0  0  0
   -1.6231   -1.5855    0.0000 C   0  0  0  0  0  0  0  0  0
   -2.2064   -2.1689    0.0000 C   0  0  0  0  0  0  0  0  0
   -2.7898   -1.5855    0.0000 C   0  0  0  0  0  0  0  0  0
   -0.7775   -0.1771    0.0000 C   0  0  0  0  0  0  0  0  0
   -0.6912   -0.9976    0.0000 C   0  0  0  0  0  0  0  0  0
    0.1157   -1.1691    0.0000 C   0  0  0  0  0  0  0  0  0
    0.5282   -0.4547    0.0000 N   0  0  0  0  0  0  0  0  0
   -0.0238    0.1584    0.0000 C   0  0  0  0  0  0  0  0  0
  1  2  1  0  0  0  0
  1  4  1  0  0  0  0
  2  3  1  0  0  0  0
  4  5  4  0  0  0  0
  4  9  4  0  0  0  0
  5  6  4  0  0  0  0
  6  7  4  0  0  0  0
  7  8  4  0  0  0  0
  8  9  4  0  0  0  0
  9 10  1  0  0  0  0
 10 11  2  0  0  0  0
 10 12  1  0  0  0  0
 12 13  1  0  0  0  0
 12 18  1  0  0  0  0
 13 14  1  0  0  0  0
 14 15  1  0  0  0  0
 14 17  1  0  0  0  0
 15 16  1  0  0  0  0
 16 17  1  0  0  0  0
 18 19  1  0  0  0  0
 18 22  1  0  0  0  0
 19 20  1  0  0  0  0
 20 21  1  0  0  0  0
 21 22  1  0  0  0  0
M  END
>  <Name_Molregno>
562580

>  <Dopamine transporter>
5.58

>  <Norepinephrine transporter>
7.66

>  <Serotonin transporter>
6.46

$$$$
562588
  Marvin  02231216192D 0   1.00000     0.00000     0

 24 27  0  0  1  0  0  0  0  0999 V2000
    1.1817   -0.3433    0.0000 O   0  0  0  0  0  0  0  0  0
    0.4673   -0.7558    0.0000 C   0  0  0  0  0  0  0  0  0
    0.4673   -1.5808    0.0000 N   0  0  0  0  0  0  0  0  0
    1.1817   -1.9933    0.0000 C   0  0  0  0  0  0  0  0  0
    1.1817   -2.8183    0.0000 C   0  0  0  0  0  0  0  0  0
    1.7651   -3.4016    0.0000 C   0  0  0  0  0  0  0  0  0
    1.1817   -3.9850    0.0000 C   0  0  0  0  0  0  0  0  0
    0.5984   -3.4016    0.0000 C   0  0  0  0  0  0  0  0  0
   -0.2472   -1.9933    0.0000 C   0  0  0  0  0  0  0  0  0
   -0.3334   -2.8137    0.0000 C   0  0  0  0  0  0  0  0  0
   -1.1404   -2.9853    0.0000 C   0  0  0  0  0  0  0  0  0
   -1.5529   -2.2708    0.0000 N   0  0  0  0  0  0  0  0  0
   -1.0009   -1.6577    0.0000 C   0  0  0  0  0  0  0  0  0
   -0.2472   -0.3433    0.0000 C   0  0  0  0  0  0  0  0  0
   -0.9617   -0.7558    0.0000 C   0  0  0  0  0  0  0  0  0
   -1.6761   -0.3433    0.0000 C   0  0  0  0  0  0  0  0  0
   -1.6761    0.4817    0.0000 C   0  0  0  0  0  0  0  0  0
   -0.9617    0.8942    0.0000 C   0  0  0  0  0  0  0  0  0
   -0.2472    0.4817    0.0000 C   0  0  0  0  0  0  0  0  0
    0.4673    0.8942    0.0000 C   0  0  0  0  0  0  0  0  0
    0.5535    1.7147    0.0000 C   0  0  0  0  0  0  0  0  0
    1.3605    1.8862    0.0000 C   0  0  0  0  0  0  0  0  0
    1.7730    1.1718    0.0000 C   0  0  0  0  0  0  0  0  0
    1.2209    0.5587    0.0000 C   0  0  0  0  0  0  0  0  0
  1  2  2  0  0  0  0
  2  3  1  0  0  0  0
  2 14  1  0  0  0  0
  3  4  1  0  0  0  0
  3  9  1  0  0  0  0
  4  5  1  0  0  0  0
  5  6  1  0  0  0  0
  5  8  1  0  0  0  0
  6  7  1  0  0  0  0
  7  8  1  0  0  0  0
  9 10  1  0  0  0  0
  9 13  1  0  0  0  0
 10 11  1  0  0  0  0
 11 12  1  0  0  0  0
 12 13  1  0  0  0  0
 14 15  4  0  0  0  0
 14 19  4  0  0  0  0
 15 16  4  0  0  0  0
 16 17  4  0  0  0  0
 17 18  4  0  0  0  0
 18 19  4  0  0  0  0
 19 20  1  0  0  0  0
 20 21  1  0  0  0  0
 20 24  1  0  0  0  0
 21 22  1  0  0  0  0
 22 23  1  0  0  0  0
 23 24  1  0  0  0  0
M  END
>  <Name_Molregno>
562588

>  <Dopamine transporter>
5.43

>  <Norepinephrine transporter>
7.74

>  <Serotonin transporter>
6.1

$$$$
562602
  Marvin  02231216192D 0   1.00000     0.00000     0

 21 23  0  0  1  0  0  0  0  0999 V2000
    1.1418   -1.7969    0.0000 O   0  0  0  0  0  0  0  0  0
    0.4274   -1.3844    0.0000 C   0  0  0  0  0  0  0  0  0
   -0.2871   -1.7969    0.0000 N   0  0  0  0  0  0  0  0  0
   -0.2871   -2.6219    0.0000 C   0  0  0  0  0  0  0  0  0
    0.2962   -3.2053    0.0000 C   0  0  0  0  0  0  0  0  0
   -0.2871   -3.7886    0.0000 C   0  0  0  0  0  0  0  0  0
   -0.8705   -3.2053    0.0000 C   0  0  0  0  0  0  0  0  0
   -1.0016   -1.3844    0.0000 C   0  0  0  0  0  0  0  0  0
   -1.7553   -1.7200    0.0000 C   0  0  0  0  0  0  0  0  0
   -2.3073   -1.1069    0.0000 C   0  0  0  0  0  0  0  0  0
   -1.8948   -0.3924    0.0000 N   0  0  0  0  0  0  0  0  0
   -1.0878   -0.5639    0.0000 C   0  0  0  0  0  0  0  0  0
    0.4274   -0.5594    0.0000 C   0  0  0  0  0  0  0  0  0
   -0.2871   -0.1469    0.0000 C   0  0  0  0  0  0  0  0  0
   -0.2871    0.6781    0.0000 C   0  0  0  0  0  0  0  0  0
    0.4274    1.0906    0.0000 C   0  0  0  0  0  0  0  0  0
    1.1418    0.6781    0.0000 C   0  0  0  0  0  0  0  0  0
    1.1418   -0.1469    0.0000 C   0  0  0  0  0  0  0  0  0
    1.8563   -0.5594    0.0000 C   0  0  0  0  0  0  0  0  0
    2.5708   -0.1469    0.0000 C   0  0  0  0  0  0  0  0  0
    1.8563   -1.3844    0.0000 C   0  0  0  0  0  0  0  0  0
  1  2  2  0  0  0  0
  2  3  1  0  0  0  0
  2 13  1  0  0  0  0
  3  4  1  0  0  0  0
  3  8  1  0  0  0  0
  4  5  1  0  0  0  0
  4  7  1  0  0  0  0
  5  6  1  0  0  0  0
  6  7  1  0  0  0  0
  8  9  1  0  0  0  0
  8 12  1  0  0  0  0
  9 10  1  0  0  0  0
 10 11  1  0  0  0  0
 11 12  1  0  0  0  0
 13 14  4  0  0  0  0
 13 18  4  0  0  0  0
 14 15  4  0  0  0  0
 15 16  4  0  0  0  0
 16 17  4  0  0  0  0
 17 18  4  0  0  0  0
 18 19  1  0  0  0  0
 19 20  1  0  0  0  0
 19 21  1  0  0  0  0
M  END
>  <Name_Molregno>
562602

>  <Dopamine transporter>
5

>  <Norepinephrine transporter>
7.37

>  <Serotonin transporter>
6.11

$$$$
564268
  Marvin  02231216192D 0   1.00000     0.00000     0

 20 22  0  0  1  0  0  0  0  0999 V2000
   -0.5699   -0.1218    0.0000 O   0  0  0  0  0  0  0  0  0
    0.1446   -0.5343    0.0000 C   0  0  0  0  0  0  0  0  0
    0.1446   -1.3593    0.0000 N   0  0  0  0  0  0  0  0  0
    0.8591   -1.7718    0.0000 C   0  0  0  0  0  0  0  0  0
    0.8591   -2.5968    0.0000 C   0  0  0  0  0  0  0  0  0
    1.4424   -3.1801    0.0000 C   0  0  0  0  0  0  0  0  0
    0.8591   -3.7635    0.0000 C   0  0  0  0  0  0  0  0  0
    0.2757   -3.1801    0.0000 C   0  0  0  0  0  0  0  0  0
   -0.5699   -1.7718    0.0000 C   0  0  0  0  0  0  0  0  0
   -1.3235   -1.4362    0.0000 C   0  0  0  0  0  0  0  0  0
   -1.8756   -2.0493    0.0000 C   0  0  0  0  0  0  0  0  0
   -1.4631   -2.7638    0.0000 N   0  0  0  0  0  0  0  0  0
   -0.6561   -2.5923    0.0000 C   0  0  0  0  0  0  0  0  0
    0.8591   -0.1218    0.0000 C   0  0  0  0  0  0  0  0  0
    0.8591    0.7032    0.0000 C   0  0  0  0  0  0  0  0  0
    1.5735    1.1157    0.0000 C   0  0  0  0  0  0  0  0  0
    2.2880    0.7032    0.0000 C   0  0  0  0  0  0  0  0  0
    2.2880   -0.1218    0.0000 C   0  0  0  0  0  0  0  0  0
    1.5735   -0.5343    0.0000 C   0  0  0  0  0  0  0  0  0
    1.5735   -1.3593    0.0000 C   0  0  0  0  0  0  0  0  0
  1  2  2  0  0  0  0
  2  3  1  0  0  0  0
  2 14  1  0  0  0  0
  3  4  1  0  0  0  0
  3  9  1  0  0  0  0
  4  5  1  0  0  0  0
  5  6  1  0  0  0  0
  5  8  1  0  0  0  0
  6  7  1  0  0  0  0
  7  8  1  0  0  0  0
  9 10  1  0  0  0  0
  9 13  1  0  0  0  0
 10 11  1  0  0  0  0
 11 12  1  0  0  0  0
 12 13  1  0  0  0  0
 14 15  4  0  0  0  0
 14 19  4  0  0  0  0
 15 16  4  0  0  0  0
 16 17  4  0  0  0  0
 17 18  4  0  0  0  0
 18 19  4  0  0  0  0
 19 20  1  0  0  0  0
M  END
>  <Name_Molregno>
564268

>  <Dopamine transporter>
5.63

>  <Norepinephrine transporter>
7.14

>  <Serotonin transporter>
6.93

$$$$
564286
  Marvin  02231216192D 0   1.00000     0.00000     0

 19 20  0  0  1  0  0  0  0  0999 V2000
   -1.0050    0.1296    0.0000 S   0  0  0  0  0  0  0  0  0
   -1.7194   -0.2829    0.0000 C   0  0  0  0  0  0  0  0  0
   -0.2905   -0.2829    0.0000 C   0  0  0  0  0  0  0  0  0
    0.4240    0.1296    0.0000 C   0  0  0  0  0  0  0  0  0
    1.1384   -0.2829    0.0000 C   0  0  0  0  0  0  0  0  0
    1.1384   -1.1079    0.0000 C   0  0  0  0  0  0  0  0  0
    0.4240   -1.5204    0.0000 C   0  0  0  0  0  0  0  0  0
   -0.2905   -1.1079    0.0000 C   0  0  0  0  0  0  0  0  0
   -1.0050   -1.5204    0.0000 C   0  0  0  0  0  0  0  0  0
   -1.7194   -1.1079    0.0000 O   0  0  0  0  0  0  0  0  0
   -1.0050   -2.3454    0.0000 N   0  0  0  0  0  0  0  0  0
   -0.2905   -2.7579    0.0000 C   0  0  0  0  0  0  0  0  0
    0.4240   -2.3454    0.0000 C   0  0  0  0  0  0  0  0  0
    1.1384   -2.7579    0.0000 C   0  0  0  0  0  0  0  0  0
   -1.7194   -2.7579    0.0000 C   0  0  0  0  0  0  0  0  0
   -1.8057   -3.5784    0.0000 C   0  0  0  0  0  0  0  0  0
   -2.6127   -3.7499    0.0000 C   0  0  0  0  0  0  0  0  0
   -3.0252   -3.0355    0.0000 N   0  0  0  0  0  0  0  0  0
   -2.4731   -2.4224    0.0000 C   0  0  0  0  0  0  0  0  0
  1  2  1  0  0  0  0
  1  3  1  0  0  0  0
  3  4  4  0  0  0  0
  3  8  4  0  0  0  0
  4  5  4  0  0  0  0
  5  6  4  0  0  0  0
  6  7  4  0  0  0  0
  7  8  4  0  0  0  0
  8  9  1  0  0  0  0
  9 10  2  0  0  0  0
  9 11  1  0  0  0  0
 11 12  1  0  0  0  0
 11 15  1  0  0  0  0
 12 13  1  0  0  0  0
 13 14  1  0  0  0  0
 15 16  1  0  0  0  0
 15 19  1  0  0  0  0
 16 17  1  0  0  0  0
 17 18  1  0  0  0  0
 18 19  1  0  0  0  0
M  END
>  <Name_Molregno>
564286

>  <Dopamine transporter>
5.51

>  <Norepinephrine transporter>
7.43

>  <Serotonin transporter>
5.96

$$$$
564287
  Marvin  02231216192D 0   1.00000     0.00000     0

 21 23  0  0  1  0  0  0  0  0999 V2000
   -3.4128    1.9603    0.0000 S   0  0  0  0  0  0  0  0  0
   -4.1273    2.3728    0.0000 C   0  0  0  0  0  0  0  0  0
   -2.6983    2.3728    0.0000 C   0  0  0  0  0  0  0  0  0
   -2.6983    3.1978    0.0000 C   0  0  0  0  0  0  0  0  0
   -1.9839    3.6103    0.0000 C   0  0  0  0  0  0  0  0  0
   -1.2694    3.1978    0.0000 C   0  0  0  0  0  0  0  0  0
   -1.2694    2.3728    0.0000 C   0  0  0  0  0  0  0  0  0
   -1.9839    1.9603    0.0000 C   0  0  0  0  0  0  0  0  0
   -1.9839    1.1353    0.0000 C   0  0  0  0  0  0  0  0  0
   -2.6983    0.7228    0.0000 O   0  0  0  0  0  0  0  0  0
   -1.2694    0.7228    0.0000 N   0  0  0  0  0  0  0  0  0
   -1.2694   -0.1022    0.0000 C   0  0  0  0  0  0  0  0  0
   -0.6019   -0.5871    0.0000 C   0  0  0  0  0  0  0  0  0
   -0.8569   -1.3717    0.0000 C   0  0  0  0  0  0  0  0  0
   -1.6819   -1.3717    0.0000 C   0  0  0  0  0  0  0  0  0
   -1.9368   -0.5871    0.0000 C   0  0  0  0  0  0  0  0  0
   -0.5549    1.1353    0.0000 C   0  0  0  0  0  0  0  0  0
   -0.4687    1.9558    0.0000 C   0  0  0  0  0  0  0  0  0
    0.3383    2.1273    0.0000 C   0  0  0  0  0  0  0  0  0
    0.7508    1.4128    0.0000 N   0  0  0  0  0  0  0  0  0
    0.1988    0.7997    0.0000 C   0  0  0  0  0  0  0  0  0
  1  2  1  0  0  0  0
  1  3  1  0  0  0  0
  3  4  4  0  0  0  0
  3  8  4  0  0  0  0
  4  5  4  0  0  0  0
  5  6  4  0  0  0  0
  6  7  4  0  0  0  0
  7  8  4  0  0  0  0
  8  9  1  0  0  0  0
  9 10  2  0  0  0  0
  9 11  1  0  0  0  0
 11 12  1  0  0  0  0
 11 17  1  0  0  0  0
 12 13  1  0  0  0  0
 12 16  1  0  0  0  0
 13 14  1  0  0  0  0
 14 15  1  0  0  0  0
 15 16  1  0  0  0  0
 17 18  1  0  0  0  0
 17 21  1  0  0  0  0
 18 19  1  0  0  0  0
 19 20  1  0  0  0  0
 20 21  1  0  0  0  0
M  END
>  <Name_Molregno>
564287

>  <Dopamine transporter>
5.32

>  <Norepinephrine transporter>
8.05

>  <Serotonin transporter>
7.44

$$$$
564302
  Marvin  02231216192D 0   1.00000     0.00000     0

 20 21  0  0  1  0  0  0  0  0999 V2000
   -1.0003   -0.6381    0.0000 O   0  0  0  0  0  0  0  0  0
   -0.2858   -1.0506    0.0000 C   0  0  0  0  0  0  0  0  0
    0.4287   -0.6381    0.0000 N   0  0  0  0  0  0  0  0  0
    1.1431   -1.0506    0.0000 C   0  0  0  0  0  0  0  0  0
    1.8576   -0.6381    0.0000 C   0  0  0  0  0  0  0  0  0
    1.8576    0.1869    0.0000 C   0  0  0  0  0  0  0  0  0
    0.4287    0.1869    0.0000 C   0  0  0  0  0  0  0  0  0
   -0.2388    0.6719    0.0000 C   0  0  0  0  0  0  0  0  0
    0.0162    1.4565    0.0000 C   0  0  0  0  0  0  0  0  0
    0.8412    1.4565    0.0000 N   0  0  0  0  0  0  0  0  0
    1.0961    0.6719    0.0000 C   0  0  0  0  0  0  0  0  0
   -0.2858   -1.8756    0.0000 C   0  0  0  0  0  0  0  0  0
    0.4287   -2.2881    0.0000 C   0  0  0  0  0  0  0  0  0
    0.4287   -3.1131    0.0000 C   0  0  0  0  0  0  0  0  0
   -0.2858   -3.5256    0.0000 C   0  0  0  0  0  0  0  0  0
   -1.0003   -3.1131    0.0000 C   0  0  0  0  0  0  0  0  0
   -1.0003   -2.2881    0.0000 C   0  0  0  0  0  0  0  0  0
   -1.7147   -1.8756    0.0000 C   0  0  0  0  0  0  0  0  0
   -2.4292   -2.2881    0.0000 C   0  0  0  0  0  0  0  0  0
   -1.7147   -1.0506    0.0000 C   0  0  0  0  0  0  0  0  0
  1  2  2  0  0  0  0
  2  3  1  0  0  0  0
  2 12  1  0  0  0  0
  3  4  1  0  0  0  0
  3  7  1  0  0  0  0
  4  5  1  0  0  0  0
  5  6  1  0  0  0  0
  7  8  1  0  0  0  0
  7 11  1  0  0  0  0
  8  9  1  0  0  0  0
  9 10  1  0  0  0  0
 10 11  1  0  0  0  0
 12 13  4  0  0  0  0
 12 17  4  0  0  0  0
 13 14  4  0  0  0  0
 14 15  4  0  0  0  0
 15 16  4  0  0  0  0
 16 17  4  0  0  0  0
 17 18  1  0  0  0  0
 18 19  1  0  0  0  0
 18 20  1  0  0  0  0
M  END
>  <Name_Molregno>
564302

>  <Dopamine transporter>
5

>  <Norepinephrine transporter>
7.04

>  <Serotonin transporter>
5.28

$$$$
566074
  Marvin  02231216192D 0   1.00000     0.00000     0

 22 24  0  0  1  0  0  0  0  0999 V2000
   -2.9209    0.2354    0.0000 S   0  0  0  0  0  0  0  0  0
   -3.6354   -0.1771    0.0000 C   0  0  0  0  0  0  0  0  0
   -3.6354   -1.0021    0.0000 C   0  0  0  0  0  0  0  0  0
   -2.9209    1.0604    0.0000 C   0  0  0  0  0  0  0  0  0
   -3.6354    1.4729    0.0000 C   0  0  0  0  0  0  0  0  0
   -3.6354    2.2979    0.0000 C   0  0  0  0  0  0  0  0  0
   -2.9209    2.7104    0.0000 C   0  0  0  0  0  0  0  0  0
   -2.2064    2.2979    0.0000 C   0  0  0  0  0  0  0  0  0
   -2.2064    1.4729    0.0000 C   0  0  0  0  0  0  0  0  0
   -1.4920    1.0604    0.0000 C   0  0  0  0  0  0  0  0  0
   -0.7775    1.4729    0.0000 O   0  0  0  0  0  0  0  0  0
   -1.4920    0.2354    0.0000 N   0  0  0  0  0  0  0  0  0
   -2.2064   -0.1771    0.0000 C   0  0  0  0  0  0  0  0  0
   -2.2064   -1.0021    0.0000 C   0  0  0  0  0  0  0  0  0
   -1.6231   -1.5855    0.0000 C   0  0  0  0  0  0  0  0  0
   -2.2064   -2.1689    0.0000 C   0  0  0  0  0  0  0  0  0
   -2.7898   -1.5855    0.0000 C   0  0  0  0  0  0  0  0  0
   -0.7775   -0.1771    0.0000 C   0  0  0  0  0  0  0  0  0
   -0.6912   -0.9976    0.0000 C   0  0  0  0  0  0  0  0  0
    0.1157   -1.1691    0.0000 C   0  0  0  0  0  0  0  0  0
    0.5282   -0.4547    0.0000 N   0  0  0  0  0  0  0  0  0
   -0.0238    0.1584    0.0000 C   0  0  0  0  0  0  0  0  0
  1  2  1  0  0  0  0
  1  4  1  0  0  0  0
  2  3  1  0  0  0  0
  4  5  4  0  0  0  0
  4  9  4  0  0  0  0
  5  6  4  0  0  0  0
  6  7  4  0  0  0  0
  7  8  4  0  0  0  0
  8  9  4  0  0  0  0
  9 10  1  0  0  0  0
 10 11  2  0  0  0  0
 10 12  1  0  0  0  0
 12 13  1  0  0  0  0
 12 18  1  0  0  0  0
 13 14  1  0  0  0  0
 14 15  1  0  0  0  0
 14 17  1  0  0  0  0
 15 16  1  0  0  0  0
 16 17  1  0  0  0  0
 18 19  1  0  0  0  0
 18 22  1  0  0  0  0
 19 20  1  0  0  0  0
 20 21  1  0  0  0  0
 21 22  1  0  0  0  0
M  END
>  <Name_Molregno>
566074

>  <Dopamine transporter>
5.44

>  <Norepinephrine transporter>
8.22

>  <Serotonin transporter>
6.58

$$$$
566090
  Marvin  02231216192D 0   1.00000     0.00000     0

 22 24  0  0  1  0  0  0  0  0999 V2000
    0.0362    2.4897    0.0000 S   0  0  0  0  0  0  0  0  0
    0.7507    2.9022    0.0000 C   0  0  0  0  0  0  0  0  0
    0.0362    1.6647    0.0000 C   0  0  0  0  0  0  0  0  0
    0.7507    1.2522    0.0000 C   0  0  0  0  0  0  0  0  0
    0.7507    0.4272    0.0000 C   0  0  0  0  0  0  0  0  0
    0.0362    0.0147    0.0000 C   0  0  0  0  0  0  0  0  0
   -0.6782    0.4272    0.0000 C   0  0  0  0  0  0  0  0  0
   -0.6782    1.2522    0.0000 C   0  0  0  0  0  0  0  0  0
   -1.3927    1.6647    0.0000 C   0  0  0  0  0  0  0  0  0
   -1.3927    2.4897    0.0000 O   0  0  0  0  0  0  0  0  0
   -2.1072    1.2522    0.0000 N   0  0  0  0  0  0  0  0  0
   -2.1072    0.4272    0.0000 C   0  0  0  0  0  0  0  0  0
   -1.4397   -0.0578    0.0000 C   0  0  0  0  0  0  0  0  0
   -1.6947   -0.8424    0.0000 C   0  0  0  0  0  0  0  0  0
   -2.5197   -0.8424    0.0000 N   0  0  0  0  0  0  0  0  0
   -2.7746   -0.0578    0.0000 C   0  0  0  0  0  0  0  0  0
   -2.8217    1.6647    0.0000 C   0  0  0  0  0  0  0  0  0
   -3.5361    1.2522    0.0000 C   0  0  0  0  0  0  0  0  0
   -4.2506    1.6647    0.0000 C   0  0  0  0  0  0  0  0  0
   -4.2506    2.4897    0.0000 C   0  0  0  0  0  0  0  0  0
   -3.5361    2.9022    0.0000 C   0  0  0  0  0  0  0  0  0
   -2.8217    2.4897    0.0000 C   0  0  0  0  0  0  0  0  0
  1  2  1  0  0  0  0
  1  3  1  0  0  0  0
  3  4  4  0  0  0  0
  3  8  4  0  0  0  0
  4  5  4  0  0  0  0
  5  6  4  0  0  0  0
  6  7  4  0  0  0  0
  7  8  4  0  0  0  0
  8  9  1  0  0  0  0
  9 10  2  0  0  0  0
  9 11  1  0  0  0  0
 11 12  1  0  0  0  0
 11 17  1  0  0  0  0
 12 13  1  0  0  0  0
 12 16  1  0  0  0  0
 13 14  1  0  0  0  0
 14 15  1  0  0  0  0
 15 16  1  0  0  0  0
 17 18  4  0  0  0  0
 17 22  4  0  0  0  0
 18 19  4  0  0  0  0
 19 20  4  0  0  0  0
 20 21  4  0  0  0  0
 21 22  4  0  0  0  0
M  END
>  <Name_Molregno>
566090

>  <Dopamine transporter>
5.46

>  <Norepinephrine transporter>
7.72

>  <Serotonin transporter>
7.19

$$$$
566111
  Marvin  02231216192D 0   1.00000     0.00000     0

 23 25  0  0  1  0  0  0  0  0999 V2000
   -1.9147    0.2915    0.0000 O   0  0  0  0  0  0  0  0  0
   -1.2003    0.7040    0.0000 C   0  0  0  0  0  0  0  0  0
   -1.2003    1.5290    0.0000 C   0  0  0  0  0  0  0  0  0
   -0.4858    1.9415    0.0000 C   0  0  0  0  0  0  0  0  0
    0.2287    1.5290    0.0000 C   0  0  0  0  0  0  0  0  0
    0.2287    0.7040    0.0000 C   0  0  0  0  0  0  0  0  0
   -0.4858    0.2915    0.0000 C   0  0  0  0  0  0  0  0  0
   -0.4858   -0.5335    0.0000 C   0  0  0  0  0  0  0  0  0
   -1.2003   -0.9460    0.0000 O   0  0  0  0  0  0  0  0  0
    0.2287   -0.9460    0.0000 N   0  0  0  0  0  0  0  0  0
    0.9431   -0.5335    0.0000 C   0  0  0  0  0  0  0  0  0
    1.6576   -0.9460    0.0000 C   0  0  0  0  0  0  0  0  0
    0.2287   -1.7710    0.0000 C   0  0  0  0  0  0  0  0  0
    0.8961   -2.2559    0.0000 C   0  0  0  0  0  0  0  0  0
    0.6412   -3.0405    0.0000 C   0  0  0  0  0  0  0  0  0
   -0.1838   -3.0405    0.0000 N   0  0  0  0  0  0  0  0  0
   -0.4388   -2.2559    0.0000 C   0  0  0  0  0  0  0  0  0
   -2.6292    0.7040    0.0000 C   0  0  0  0  0  0  0  0  0
   -3.3437    0.2915    0.0000 C   0  0  0  0  0  0  0  0  0
   -4.0582    0.7040    0.0000 C   0  0  0  0  0  0  0  0  0
   -4.0582    1.5290    0.0000 C   0  0  0  0  0  0  0  0  0
   -3.3437    1.9415    0.0000 C   0  0  0  0  0  0  0  0  0
   -2.6292    1.5290    0.0000 C   0  0  0  0  0  0  0  0  0
  1  2  1  0  0  0  0
  1 18  1  0  0  0  0
  2  3  4  0  0  0  0
  2  7  4  0  0  0  0
  3  4  4  0  0  0  0
  4  5  4  0  0  0  0
  5  6  4  0  0  0  0
  6  7  4  0  0  0  0
  7  8  1  0  0  0  0
  8  9  2  0  0  0  0
  8 10  1  0  0  0  0
 10 11  1  0  0  0  0
 10 13  1  0  0  0  0
 11 12  1  0  0  0  0
 13 14  1  0  0  0  0
 13 17  1  0  0  0  0
 14 15  1  0  0  0  0
 15 16  1  0  0  0  0
 16 17  1  0  0  0  0
 18 19  4  0  0  0  0
 18 23  4  0  0  0  0
 19 20  4  0  0  0  0
 20 21  4  0  0  0  0
 21 22  4  0  0  0  0
 22 23  4  0  0  0  0
M  END
>  <Name_Molregno>
566111

>  <Dopamine transporter>
5.45

>  <Norepinephrine transporter>
8.05

>  <Serotonin transporter>
5.79

$$$$
566112
  Marvin  02231216192D 0   1.00000     0.00000     0

 25 27  0  0  1  0  0  0  0  0999 V2000
   -2.0822   -1.1961    0.0000 O   0  0  0  0  0  0  0  0  0
   -2.0822   -0.3711    0.0000 C   0  0  0  0  0  0  0  0  0
   -2.7967    0.0414    0.0000 C   0  0  0  0  0  0  0  0  0
   -2.7967    0.8664    0.0000 C   0  0  0  0  0  0  0  0  0
   -2.0822    1.2789    0.0000 C   0  0  0  0  0  0  0  0  0
   -1.3678    0.8664    0.0000 C   0  0  0  0  0  0  0  0  0
   -1.3678    0.0414    0.0000 C   0  0  0  0  0  0  0  0  0
   -0.6533   -0.3711    0.0000 C   0  0  0  0  0  0  0  0  0
   -0.6533   -1.1961    0.0000 O   0  0  0  0  0  0  0  0  0
    0.0612    0.0414    0.0000 N   0  0  0  0  0  0  0  0  0
    0.7756   -0.3711    0.0000 C   0  0  0  0  0  0  0  0  0
    1.4901    0.0414    0.0000 C   0  0  0  0  0  0  0  0  0
    2.2046   -0.3711    0.0000 C   0  0  0  0  0  0  0  0  0
    1.4901    0.8664    0.0000 C   0  0  0  0  0  0  0  0  0
    0.0612    0.8664    0.0000 C   0  0  0  0  0  0  0  0  0
   -0.6063    1.3514    0.0000 C   0  0  0  0  0  0  0  0  0
   -0.3513    2.1360    0.0000 C   0  0  0  0  0  0  0  0  0
    0.4737    2.1360    0.0000 N   0  0  0  0  0  0  0  0  0
    0.7286    1.3514    0.0000 C   0  0  0  0  0  0  0  0  0
   -2.7967   -1.6086    0.0000 C   0  0  0  0  0  0  0  0  0
   -2.7967   -2.4336    0.0000 C   0  0  0  0  0  0  0  0  0
   -3.5112   -2.8461    0.0000 C   0  0  0  0  0  0  0  0  0
   -4.2257   -2.4336    0.0000 C   0  0  0  0  0  0  0  0  0
   -4.2257   -1.6086    0.0000 C   0  0  0  0  0  0  0  0  0
   -3.5112   -1.1961    0.0000 C   0  0  0  0  0  0  0  0  0
  1  2  1  0  0  0  0
  1 20  1  0  0  0  0
  2  3  4  0  0  0  0
  2  7  4  0  0  0  0
  3  4  4  0  0  0  0
  4  5  4  0  0  0  0
  5  6  4  0  0  0  0
  6  7  4  0  0  0  0
  7  8  1  0  0  0  0
  8  9  2  0  0  0  0
  8 10  1  0  0  0  0
 10 11  1  0  0  0  0
 10 15  1  0  0  0  0
 11 12  1  0  0  0  0
 12 13  1  0  0  0  0
 12 14  1  0  0  0  0
 15 16  1  0  0  0  0
 15 19  1  0  0  0  0
 16 17  1  0  0  0  0
 17 18  1  0  0  0  0
 18 19  1  0  0  0  0
 20 21  4  0  0  0  0
 20 25  4  0  0  0  0
 21 22  4  0  0  0  0
 22 23  4  0  0  0  0
 23 24  4  0  0  0  0
 24 25  4  0  0  0  0
M  END
>  <Name_Molregno>
566112

>  <Dopamine transporter>
5

>  <Norepinephrine transporter>
8.1

>  <Serotonin transporter>
6.8

$$$$
567945
  Marvin  02231216192D 0   1.00000     0.00000     0

 24 26  0  0  1  0  0  0  0  0999 V2000
   -1.8610    0.4907    0.0000 F   0  0  0  0  0  0  0  0  0
   -1.8610    1.3157    0.0000 C   0  0  0  0  0  0  0  0  0
   -1.0360    1.3157    0.0000 F   0  0  0  0  0  0  0  0  0
   -2.6860    1.3157    0.0000 F   0  0  0  0  0  0  0  0  0
   -1.8610    2.1407    0.0000 C   0  0  0  0  0  0  0  0  0
   -2.5755    2.5532    0.0000 C   0  0  0  0  0  0  0  0  0
   -2.5755    3.3782    0.0000 C   0  0  0  0  0  0  0  0  0
   -1.8610    3.7907    0.0000 C   0  0  0  0  0  0  0  0  0
   -1.1465    3.3782    0.0000 C   0  0  0  0  0  0  0  0  0
   -1.1465    2.5532    0.0000 C   0  0  0  0  0  0  0  0  0
   -0.4321    2.1407    0.0000 C   0  0  0  0  0  0  0  0  0
    0.2824    2.5532    0.0000 O   0  0  0  0  0  0  0  0  0
   -0.4321    1.3157    0.0000 N   0  0  0  0  0  0  0  0  0
   -1.1465    0.9032    0.0000 C   0  0  0  0  0  0  0  0  0
   -1.1465    0.0782    0.0000 C   0  0  0  0  0  0  0  0  0
   -0.4791   -0.4067    0.0000 C   0  0  0  0  0  0  0  0  0
   -0.7340   -1.1913    0.0000 C   0  0  0  0  0  0  0  0  0
   -1.5590   -1.1913    0.0000 C   0  0  0  0  0  0  0  0  0
   -1.8140   -0.4067    0.0000 C   0  0  0  0  0  0  0  0  0
    0.2824    0.9032    0.0000 C   0  0  0  0  0  0  0  0  0
    0.3686    0.0827    0.0000 C   0  0  0  0  0  0  0  0  0
    1.1756   -0.0888    0.0000 C   0  0  0  0  0  0  0  0  0
    1.5881    0.6257    0.0000 N   0  0  0  0  0  0  0  0  0
    1.0361    1.2388    0.0000 C   0  0  0  0  0  0  0  0  0
  1  2  1  0  0  0  0
  2  3  1  0  0  0  0
  2  4  1  0  0  0  0
  2  5  1  0  0  0  0
  5  6  4  0  0  0  0
  5 10  4  0  0  0  0
  6  7  4  0  0  0  0
  7  8  4  0  0  0  0
  8  9  4  0  0  0  0
  9 10  4  0  0  0  0
 10 11  1  0  0  0  0
 11 12  2  0  0  0  0
 11 13  1  0  0  0  0
 13 14  1  0  0  0  0
 13 20  1  0  0  0  0
 14 15  1  0  0  0  0
 15 16  1  0  0  0  0
 15 19  1  0  0  0  0
 16 17  1  0  0  0  0
 17 18  1  0  0  0  0
 18 19  1  0  0  0  0
 20 21  1  0  0  0  0
 20 24  1  0  0  0  0
 21 22  1  0  0  0  0
 22 23  1  0  0  0  0
 23 24  1  0  0  0  0
M  END
>  <Name_Molregno>
567945

>  <Dopamine transporter>
5.56

>  <Norepinephrine transporter>
7.62

>  <Serotonin transporter>
6.96

$$$$
567949
  Marvin  02231216192D 0   1.00000     0.00000     0

 27 30  0  0  1  0  0  0  0  0999 V2000
    0.0309    0.0182    0.0000 O   0  0  0  0  0  0  0  0  0
    0.0309   -0.8068    0.0000 C   0  0  0  0  0  0  0  0  0
    0.7454   -1.2193    0.0000 C   0  0  0  0  0  0  0  0  0
    0.7454   -2.0443    0.0000 C   0  0  0  0  0  0  0  0  0
    0.0309   -2.4568    0.0000 C   0  0  0  0  0  0  0  0  0
   -0.6836   -2.0443    0.0000 C   0  0  0  0  0  0  0  0  0
   -0.6836   -1.2193    0.0000 C   0  0  0  0  0  0  0  0  0
   -1.3980   -0.8068    0.0000 C   0  0  0  0  0  0  0  0  0
   -1.3980    0.0182    0.0000 O   0  0  0  0  0  0  0  0  0
   -2.1125   -1.2193    0.0000 N   0  0  0  0  0  0  0  0  0
   -2.1125   -2.0443    0.0000 C   0  0  0  0  0  0  0  0  0
   -1.4451   -2.5292    0.0000 C   0  0  0  0  0  0  0  0  0
   -1.7000   -3.3138    0.0000 C   0  0  0  0  0  0  0  0  0
   -2.5250   -3.3138    0.0000 N   0  0  0  0  0  0  0  0  0
   -2.7799   -2.5292    0.0000 C   0  0  0  0  0  0  0  0  0
   -2.8270   -0.8068    0.0000 C   0  0  0  0  0  0  0  0  0
   -3.5414   -1.2193    0.0000 C   0  0  0  0  0  0  0  0  0
   -4.2559   -0.8068    0.0000 C   0  0  0  0  0  0  0  0  0
   -4.2559    0.0182    0.0000 C   0  0  0  0  0  0  0  0  0
   -3.5414    0.4307    0.0000 C   0  0  0  0  0  0  0  0  0
   -2.8270    0.0182    0.0000 C   0  0  0  0  0  0  0  0  0
    0.7454    0.4307    0.0000 C   0  0  0  0  0  0  0  0  0
    0.7454    1.2557    0.0000 C   0  0  0  0  0  0  0  0  0
    1.4599    1.6682    0.0000 C   0  0  0  0  0  0  0  0  0
    2.1743    1.2557    0.0000 C   0  0  0  0  0  0  0  0  0
    2.1743    0.4307    0.0000 C   0  0  0  0  0  0  0  0  0
    1.4599    0.0182    0.0000 C   0  0  0  0  0  0  0  0  0
  1  2  1  0  0  0  0
  1 22  1  0  0  0  0
  2  3  4  0  0  0  0
  2  7  4  0  0  0  0
  3  4  4  0  0  0  0
  4  5  4  0  0  0  0
  5  6  4  0  0  0  0
  6  7  4  0  0  0  0
  7  8  1  0  0  0  0
  8  9  2  0  0  0  0
  8 10  1  0  0  0  0
 10 11  1  0  0  0  0
 10 16  1  0  0  0  0
 11 12  1  0  0  0  0
 11 15  1  0  0  0  0
 12 13  1  0  0  0  0
 13 14  1  0  0  0  0
 14 15  1  0  0  0  0
 16 17  4  0  0  0  0
 16 21  4  0  0  0  0
 17 18  4  0  0  0  0
 18 19  4  0  0  0  0
 19 20  4  0  0  0  0
 20 21  4  0  0  0  0
 22 23  4  0  0  0  0
 22 27  4  0  0  0  0
 23 24  4  0  0  0  0
 24 25  4  0  0  0  0
 25 26  4  0  0  0  0
 26 27  4  0  0  0  0
M  END
>  <Name_Molregno>
567949

>  <Dopamine transporter>
5.33

>  <Norepinephrine transporter>
8.52

>  <Serotonin transporter>
7.17

$$$$
572495
  Marvin  02231216192D 0   1.00000     0.00000     0

 21 23  0  0  0  0  0  0  0  0999 V2000
    3.7582   -0.5204    0.0000 F   0  0  0  0  0  0  0  0  0
    3.7582   -1.3454    0.0000 C   0  0  0  0  0  0  0  0  0
    4.4727   -1.7579    0.0000 C   0  0  0  0  0  0  0  0  0
    4.4727   -2.5829    0.0000 C   0  0  0  0  0  0  0  0  0
    3.7582   -2.9954    0.0000 C   0  0  0  0  0  0  0  0  0
    3.0438   -2.5829    0.0000 C   0  0  0  0  0  0  0  0  0
    3.0438   -1.7579    0.0000 C   0  0  0  0  0  0  0  0  0
    2.3293   -1.3454    0.0000 C   0  0  0  0  0  0  0  0  0
    2.3293   -0.5204    0.0000 O   0  0  0  0  0  0  0  0  0
    1.6148   -0.1079    0.0000 C   0  0  0  0  0  0  0  0  0
    0.9004   -0.5204    0.0000 C   0  0  0  0  0  0  0  0  0
    0.1859   -0.1079    0.0000 C   0  0  0  0  0  0  0  0  0
    0.1859    0.7171    0.0000 C   0  0  0  0  0  0  0  0  0
    0.9004    1.1296    0.0000 C   0  0  0  0  0  0  0  0  0
    1.6148    0.7171    0.0000 C   0  0  0  0  0  0  0  0  0
    2.3293    1.1296    0.0000 C   0  0  0  0  0  0  0  0  0
    2.3293    1.9546    0.0000 C   0  0  0  0  0  0  0  0  0
    3.0438    2.3671    0.0000 C   0  0  0  0  0  0  0  0  0
    3.7582    1.9546    0.0000 N   0  0  0  0  0  0  0  0  0
    3.7582    1.1296    0.0000 C   0  0  0  0  0  0  0  0  0
    3.0438    0.7171    0.0000 C   0  0  0  0  0  0  0  0  0
  1  2  1  0  0  0  0
  2  3  4  0  0  0  0
  2  7  4  0  0  0  0
  3  4  4  0  0  0  0
  4  5  4  0  0  0  0
  5  6  4  0  0  0  0
  6  7  4  0  0  0  0
  7  8  1  0  0  0  0
  8  9  1  0  0  0  0
  9 10  1  0  0  0  0
 10 11  4  0  0  0  0
 10 15  4  0  0  0  0
 11 12  4  0  0  0  0
 12 13  4  0  0  0  0
 13 14  4  0  0  0  0
 14 15  4  0  0  0  0
 15 16  1  0  0  0  0
 16 17  1  0  0  0  0
 16 21  1  0  0  0  0
 17 18  1  0  0  0  0
 18 19  1  0  0  0  0
 19 20  1  0  0  0  0
 20 21  1  0  0  0  0
M  END
>  <Name_Molregno>
572495

>  <5-HT1A>
7.33

>  <Dopamine transporter>
5.74

>  <Norepinephrine transporter>
7.47

>  <Serotonin transporter>
7.25

$$$$
572496
  Marvin  02231216192D 0   1.00000     0.00000     0

 22 24  0  0  0  0  0  0  0  0999 V2000
   -2.3312    1.4071    0.0000 F   0  0  0  0  0  0  0  0  0
   -2.3312    0.5821    0.0000 C   0  0  0  0  0  0  0  0  0
   -1.6167    0.1696    0.0000 C   0  0  0  0  0  0  0  0  0
   -1.6167   -0.6554    0.0000 C   0  0  0  0  0  0  0  0  0
   -0.9023   -1.0679    0.0000 C   0  0  0  0  0  0  0  0  0
   -0.1878   -0.6554    0.0000 C   0  0  0  0  0  0  0  0  0
    0.5267   -1.0679    0.0000 C   0  0  0  0  0  0  0  0  0
    0.5267   -1.8929    0.0000 N   0  0  0  0  0  0  0  0  0
   -0.1878   -2.3054    0.0000 C   0  0  0  0  0  0  0  0  0
   -0.9023   -1.8929    0.0000 C   0  0  0  0  0  0  0  0  0
   -2.3312   -1.0679    0.0000 C   0  0  0  0  0  0  0  0  0
   -2.3312   -1.8929    0.0000 O   0  0  0  0  0  0  0  0  0
   -3.0457   -2.3054    0.0000 C   0  0  0  0  0  0  0  0  0
   -3.0457   -3.1304    0.0000 C   0  0  0  0  0  0  0  0  0
   -3.7602   -3.5429    0.0000 C   0  0  0  0  0  0  0  0  0
   -4.4746   -3.1304    0.0000 C   0  0  0  0  0  0  0  0  0
   -5.1891   -3.5429    0.0000 F   0  0  0  0  0  0  0  0  0
   -4.4746   -2.3054    0.0000 C   0  0  0  0  0  0  0  0  0
   -3.7602   -1.8929    0.0000 C   0  0  0  0  0  0  0  0  0
   -3.0457   -0.6554    0.0000 C   0  0  0  0  0  0  0  0  0
   -3.0457    0.1696    0.0000 C   0  0  0  0  0  0  0  0  0
   -3.7602    0.5821    0.0000 F   0  0  0  0  0  0  0  0  0
  1  2  1  0  0  0  0
  2  3  4  0  0  0  0
  2 21  4  0  0  0  0
  3  4  4  0  0  0  0
  4  5  1  0  0  0  0
  4 11  4  0  0  0  0
  5  6  1  0  0  0  0
  5 10  1  0  0  0  0
  6  7  1  0  0  0  0
  7  8  1  0  0  0  0
  8  9  1  0  0  0  0
  9 10  1  0  0  0  0
 11 12  1  0  0  0  0
 11 20  4  0  0  0  0
 12 13  1  0  0  0  0
 13 14  4  0  0  0  0
 13 19  4  0  0  0  0
 14 15  4  0  0  0  0
 15 16  4  0  0  0  0
 16 17  1  0  0  0  0
 16 18  4  0  0  0  0
 18 19  4  0  0  0  0
 20 21  4  0  0  0  0
 21 22  1  0  0  0  0
M  END
>  <Name_Molregno>
572496

>  <5-HT1A>
5.34

>  <Dopamine transporter>
9

>  <Norepinephrine transporter>
9

>  <Serotonin transporter>
6.59

$$$$
572504
  Marvin  02231216192D 0   1.00000     0.00000     0

 21 23  0  0  0  0  0  0  0  0999 V2000
    1.9777   -0.3426    0.0000 F   0  0  0  0  0  0  0  0  0
    1.9777   -1.1676    0.0000 C   0  0  0  0  0  0  0  0  0
    2.6921   -1.5801    0.0000 C   0  0  0  0  0  0  0  0  0
    2.6921   -2.4051    0.0000 C   0  0  0  0  0  0  0  0  0
    1.9777   -2.8176    0.0000 C   0  0  0  0  0  0  0  0  0
    1.2632   -2.4051    0.0000 C   0  0  0  0  0  0  0  0  0
    0.5487   -2.8176    0.0000 C   0  0  0  0  0  0  0  0  0
    0.5487   -3.6426    0.0000 C   0  0  0  0  0  0  0  0  0
   -0.1658   -4.0551    0.0000 C   0  0  0  0  0  0  0  0  0
   -0.8802   -3.6426    0.0000 N   0  0  0  0  0  0  0  0  0
   -0.8802   -2.8176    0.0000 C   0  0  0  0  0  0  0  0  0
   -0.1658   -2.4051    0.0000 C   0  0  0  0  0  0  0  0  0
    1.2632   -1.5801    0.0000 C   0  0  0  0  0  0  0  0  0
    0.5487   -1.1676    0.0000 O   0  0  0  0  0  0  0  0  0
   -0.1658   -1.5801    0.0000 C   0  0  0  0  0  0  0  0  0
   -0.8802   -1.1676    0.0000 C   0  0  0  0  0  0  0  0  0
   -1.5947   -1.5801    0.0000 C   0  0  0  0  0  0  0  0  0
   -2.3092   -1.1676    0.0000 C   0  0  0  0  0  0  0  0  0
   -2.3092   -0.3426    0.0000 C   0  0  0  0  0  0  0  0  0
   -1.5947    0.0699    0.0000 C   0  0  0  0  0  0  0  0  0
   -0.8802   -0.3426    0.0000 C   0  0  0  0  0  0  0  0  0
  1  2  1  0  0  0  0
  2  3  4  0  0  0  0
  2 13  4  0  0  0  0
  3  4  4  0  0  0  0
  4  5  4  0  0  0  0
  5  6  4  0  0  0  0
  6  7  1  0  0  0  0
  6 13  4  0  0  0  0
  7  8  1  0  0  0  0
  7 12  1  0  0  0  0
  8  9  1  0  0  0  0
  9 10  1  0  0  0  0
 10 11  1  0  0  0  0
 11 12  1  0  0  0  0
 13 14  1  0  0  0  0
 14 15  1  0  0  0  0
 15 16  1  0  0  0  0
 16 17  4  0  0  0  0
 16 21  4  0  0  0  0
 17 18  4  0  0  0  0
 18 19  4  0  0  0  0
 19 20  4  0  0  0  0
 20 21  4  0  0  0  0
M  END
>  <Name_Molregno>
572504

>  <5-HT1A>
6.22

>  <Dopamine transporter>
5.13

>  <Norepinephrine transporter>
8.05

>  <Serotonin transporter>
5.53

$$$$
572505
  Marvin  02231216192D 0   1.00000     0.00000     0

 21 23  0  0  0  0  0  0  0  0999 V2000
    4.0511    2.3628    0.0000 F   0  0  0  0  0  0  0  0  0
    4.0511    1.5378    0.0000 C   0  0  0  0  0  0  0  0  0
    4.7656    1.1253    0.0000 C   0  0  0  0  0  0  0  0  0
    4.7656    0.3003    0.0000 C   0  0  0  0  0  0  0  0  0
    4.0511   -0.1122    0.0000 C   0  0  0  0  0  0  0  0  0
    3.3366    0.3003    0.0000 C   0  0  0  0  0  0  0  0  0
    2.6222   -0.1122    0.0000 O   0  0  0  0  0  0  0  0  0
    2.6222   -0.9372    0.0000 C   0  0  0  0  0  0  0  0  0
    1.9077   -1.3497    0.0000 C   0  0  0  0  0  0  0  0  0
    1.9077   -2.1747    0.0000 C   0  0  0  0  0  0  0  0  0
    1.1932   -2.5872    0.0000 C   0  0  0  0  0  0  0  0  0
    0.4787   -2.1747    0.0000 C   0  0  0  0  0  0  0  0  0
    0.4787   -1.3497    0.0000 C   0  0  0  0  0  0  0  0  0
    1.1932   -0.9372    0.0000 C   0  0  0  0  0  0  0  0  0
    3.3366    1.1253    0.0000 C   0  0  0  0  0  0  0  0  0
    2.6222    1.5378    0.0000 C   0  0  0  0  0  0  0  0  0
    1.9077    1.1253    0.0000 C   0  0  0  0  0  0  0  0  0
    1.1932    1.5378    0.0000 C   0  0  0  0  0  0  0  0  0
    1.1932    2.3628    0.0000 N   0  0  0  0  0  0  0  0  0
    1.9077    2.7753    0.0000 C   0  0  0  0  0  0  0  0  0
    2.6222    2.3628    0.0000 C   0  0  0  0  0  0  0  0  0
  1  2  1  0  0  0  0
  2  3  4  0  0  0  0
  2 15  4  0  0  0  0
  3  4  4  0  0  0  0
  4  5  4  0  0  0  0
  5  6  4  0  0  0  0
  6  7  1  0  0  0  0
  6 15  4  0  0  0  0
  7  8  1  0  0  0  0
  8  9  1  0  0  0  0
  9 10  4  0  0  0  0
  9 14  4  0  0  0  0
 10 11  4  0  0  0  0
 11 12  4  0  0  0  0
 12 13  4  0  0  0  0
 13 14  4  0  0  0  0
 15 16  1  0  0  0  0
 16 17  1  0  0  0  0
 16 21  1  0  0  0  0
 17 18  1  0  0  0  0
 18 19  1  0  0  0  0
 19 20  1  0  0  0  0
 20 21  1  0  0  0  0
M  END
>  <Name_Molregno>
572505

>  <5-HT1A>
6.44

>  <Dopamine transporter>
5.99

>  <Norepinephrine transporter>
8.05

>  <Serotonin transporter>
7.55

$$$$
572506
  Marvin  02231216192D 0   1.00000     0.00000     0

 21 23  0  0  0  0  0  0  0  0999 V2000
    4.4801    4.5411    0.0000 F   0  0  0  0  0  0  0  0  0
    4.4801    3.7161    0.0000 C   0  0  0  0  0  0  0  0  0
    5.1946    3.3036    0.0000 C   0  0  0  0  0  0  0  0  0
    5.1946    2.4786    0.0000 C   0  0  0  0  0  0  0  0  0
    4.4801    2.0661    0.0000 C   0  0  0  0  0  0  0  0  0
    3.7657    2.4786    0.0000 C   0  0  0  0  0  0  0  0  0
    3.7657    3.3036    0.0000 C   0  0  0  0  0  0  0  0  0
    4.4801    1.2411    0.0000 C   0  0  0  0  0  0  0  0  0
    3.7657    0.8286    0.0000 O   0  0  0  0  0  0  0  0  0
    3.7657    0.0036    0.0000 C   0  0  0  0  0  0  0  0  0
    4.4801   -0.4089    0.0000 C   0  0  0  0  0  0  0  0  0
    4.4801   -1.2339    0.0000 C   0  0  0  0  0  0  0  0  0
    3.7657   -1.6464    0.0000 C   0  0  0  0  0  0  0  0  0
    3.0512   -1.2339    0.0000 C   0  0  0  0  0  0  0  0  0
    3.0512   -0.4089    0.0000 C   0  0  0  0  0  0  0  0  0
    2.3367    0.0036    0.0000 C   0  0  0  0  0  0  0  0  0
    1.6222   -0.4089    0.0000 C   0  0  0  0  0  0  0  0  0
    0.9078    0.0036    0.0000 C   0  0  0  0  0  0  0  0  0
    0.9078    0.8286    0.0000 N   0  0  0  0  0  0  0  0  0
    1.6222    1.2411    0.0000 C   0  0  0  0  0  0  0  0  0
    2.3367    0.8286    0.0000 C   0  0  0  0  0  0  0  0  0
  1  2  1  0  0  0  0
  2  3  4  0  0  0  0
  2  7  4  0  0  0  0
  3  4  4  0  0  0  0
  4  5  4  0  0  0  0
  5  6  4  0  0  0  0
  5  8  1  0  0  0  0
  6  7  4  0  0  0  0
  8  9  1  0  0  0  0
  9 10  1  0  0  0  0
 10 11  4  0  0  0  0
 10 15  4  0  0  0  0
 11 12  4  0  0  0  0
 12 13  4  0  0  0  0
 13 14  4  0  0  0  0
 14 15  4  0  0  0  0
 15 16  1  0  0  0  0
 16 17  1  0  0  0  0
 16 21  1  0  0  0  0
 17 18  1  0  0  0  0
 18 19  1  0  0  0  0
 19 20  1  0  0  0  0
 20 21  1  0  0  0  0
M  END
>  <Name_Molregno>
572506

>  <5-HT1A>
7.11

>  <Dopamine transporter>
5.04

>  <Norepinephrine transporter>
6.79

>  <Serotonin transporter>
6.56

$$$$
572507
  Marvin  02231216192D 0   1.00000     0.00000     0

 21 23  0  0  0  0  0  0  0  0999 V2000
    0.8001    0.5776    0.0000 F   0  0  0  0  0  0  0  0  0
    0.8001   -0.2474    0.0000 C   0  0  0  0  0  0  0  0  0
    1.5146   -0.6599    0.0000 C   0  0  0  0  0  0  0  0  0
    1.5146   -1.4849    0.0000 C   0  0  0  0  0  0  0  0  0
    2.2290   -1.8974    0.0000 O   0  0  0  0  0  0  0  0  0
    2.9435   -1.4849    0.0000 C   0  0  0  0  0  0  0  0  0
    2.9435   -0.6599    0.0000 C   0  0  0  0  0  0  0  0  0
    3.6580   -0.2474    0.0000 C   0  0  0  0  0  0  0  0  0
    4.3724   -0.6599    0.0000 C   0  0  0  0  0  0  0  0  0
    4.3724   -1.4849    0.0000 C   0  0  0  0  0  0  0  0  0
    3.6580   -1.8974    0.0000 C   0  0  0  0  0  0  0  0  0
    3.6580   -2.7224    0.0000 C   0  0  0  0  0  0  0  0  0
    4.3724   -3.1349    0.0000 C   0  0  0  0  0  0  0  0  0
    4.3724   -3.9599    0.0000 C   0  0  0  0  0  0  0  0  0
    3.6580   -4.3724    0.0000 N   0  0  0  0  0  0  0  0  0
    2.9435   -3.9599    0.0000 C   0  0  0  0  0  0  0  0  0
    2.9435   -3.1349    0.0000 C   0  0  0  0  0  0  0  0  0
    3.6580    0.5776    0.0000 C   0  0  0  0  0  0  0  0  0
    0.8001   -1.8974    0.0000 C   0  0  0  0  0  0  0  0  0
    0.0856   -1.4849    0.0000 C   0  0  0  0  0  0  0  0  0
    0.0856   -0.6599    0.0000 C   0  0  0  0  0  0  0  0  0
  1  2  1  0  0  0  0
  2  3  4  0  0  0  0
  2 21  4  0  0  0  0
  3  4  4  0  0  0  0
  4  5  1  0  0  0  0
  4 19  4  0  0  0  0
  5  6  1  0  0  0  0
  6  7  4  0  0  0  0
  6 11  4  0  0  0  0
  7  8  4  0  0  0  0
  8  9  4  0  0  0  0
  8 18  1  0  0  0  0
  9 10  4  0  0  0  0
 10 11  4  0  0  0  0
 11 12  1  0  0  0  0
 12 13  1  0  0  0  0
 12 17  1  0  0  0  0
 13 14  1  0  0  0  0
 14 15  1  0  0  0  0
 15 16  1  0  0  0  0
 16 17  1  0  0  0  0
 19 20  4  0  0  0  0
 20 21  4  0  0  0  0
M  END
>  <Name_Molregno>
572507

>  <5-HT1A>
5.34

>  <Dopamine transporter>
5.84

>  <Norepinephrine transporter>
6.77

>  <Serotonin transporter>
8.7

$$$$
572508
  Marvin  02231216192D 0   1.00000     0.00000     0

 21 23  0  0  0  0  0  0  0  0999 V2000
    2.6883   -0.6918    0.0000 F   0  0  0  0  0  0  0  0  0
    2.6883   -1.5168    0.0000 C   0  0  0  0  0  0  0  0  0
    3.4027   -1.9293    0.0000 C   0  0  0  0  0  0  0  0  0
    3.4027   -2.7543    0.0000 C   0  0  0  0  0  0  0  0  0
    2.6883   -3.1668    0.0000 C   0  0  0  0  0  0  0  0  0
    1.9738   -2.7543    0.0000 C   0  0  0  0  0  0  0  0  0
    1.9738   -1.9293    0.0000 C   0  0  0  0  0  0  0  0  0
    1.2593   -1.5168    0.0000 O   0  0  0  0  0  0  0  0  0
    0.5449   -1.9293    0.0000 C   0  0  0  0  0  0  0  0  0
    0.5449   -2.7543    0.0000 C   0  0  0  0  0  0  0  0  0
   -0.1696   -3.1668    0.0000 C   0  0  0  0  0  0  0  0  0
   -0.8841   -2.7543    0.0000 C   0  0  0  0  0  0  0  0  0
   -0.8841   -1.9293    0.0000 C   0  0  0  0  0  0  0  0  0
   -0.1696   -1.5168    0.0000 C   0  0  0  0  0  0  0  0  0
   -0.1696   -0.6918    0.0000 C   0  0  0  0  0  0  0  0  0
   -0.8841   -0.2793    0.0000 C   0  0  0  0  0  0  0  0  0
   -0.8841    0.5457    0.0000 C   0  0  0  0  0  0  0  0  0
   -0.1696    0.9582    0.0000 N   0  0  0  0  0  0  0  0  0
    0.5449    0.5457    0.0000 C   0  0  0  0  0  0  0  0  0
    0.5449   -0.2793    0.0000 C   0  0  0  0  0  0  0  0  0
    2.6883   -3.9918    0.0000 C   0  0  0  0  0  0  0  0  0
  1  2  1  0  0  0  0
  2  3  4  0  0  0  0
  2  7  4  0  0  0  0
  3  4  4  0  0  0  0
  4  5  4  0  0  0  0
  5  6  4  0  0  0  0
  5 21  1  0  0  0  0
  6  7  4  0  0  0  0
  7  8  1  0  0  0  0
  8  9  1  0  0  0  0
  9 10  4  0  0  0  0
  9 14  4  0  0  0  0
 10 11  4  0  0  0  0
 11 12  4  0  0  0  0
 12 13  4  0  0  0  0
 13 14  4  0  0  0  0
 14 15  1  0  0  0  0
 15 16  1  0  0  0  0
 15 20  1  0  0  0  0
 16 17  1  0  0  0  0
 17 18  1  0  0  0  0
 18 19  1  0  0  0  0
 19 20  1  0  0  0  0
M  END
>  <Name_Molregno>
572508

>  <5-HT1A>
7.24

>  <Dopamine transporter>
5.97

>  <Norepinephrine transporter>
8.52

>  <Serotonin transporter>
7.59

$$$$
572509
  Marvin  02231216192D 0   1.00000     0.00000     0

 19 21  0  0  0  0  0  0  0  0999 V2000
   -0.1560    0.1727    0.0000 O   0  0  0  0  0  0  0  0  0
   -0.1560   -0.6523    0.0000 C   0  0  0  0  0  0  0  0  0
    0.5585   -1.0648    0.0000 C   0  0  0  0  0  0  0  0  0
    0.5585   -1.8898    0.0000 C   0  0  0  0  0  0  0  0  0
   -0.1560   -2.3023    0.0000 C   0  0  0  0  0  0  0  0  0
   -0.8704   -1.8898    0.0000 C   0  0  0  0  0  0  0  0  0
   -0.8704   -1.0648    0.0000 C   0  0  0  0  0  0  0  0  0
   -1.5849   -0.6523    0.0000 N   0  0  0  0  0  0  0  0  0
   -2.2994   -1.0648    0.0000 C   0  0  0  0  0  0  0  0  0
   -3.0139   -0.6523    0.0000 C   0  0  0  0  0  0  0  0  0
   -3.0139    0.1727    0.0000 N   0  0  0  0  0  0  0  0  0
   -2.2994    0.5852    0.0000 C   0  0  0  0  0  0  0  0  0
   -1.5849    0.1727    0.0000 C   0  0  0  0  0  0  0  0  0
    0.5585    0.5852    0.0000 C   0  0  0  0  0  0  0  0  0
    0.5585    1.4102    0.0000 C   0  0  0  0  0  0  0  0  0
    1.2730    1.8227    0.0000 C   0  0  0  0  0  0  0  0  0
    1.9874    1.4102    0.0000 C   0  0  0  0  0  0  0  0  0
    1.9874    0.5852    0.0000 C   0  0  0  0  0  0  0  0  0
    1.2730    0.1727    0.0000 C   0  0  0  0  0  0  0  0  0
  1  2  1  0  0  0  0
  1 14  1  0  0  0  0
  2  3  4  0  0  0  0
  2  7  4  0  0  0  0
  3  4  4  0  0  0  0
  4  5  4  0  0  0  0
  5  6  4  0  0  0  0
  6  7  4  0  0  0  0
  7  8  1  0  0  0  0
  8  9  1  0  0  0  0
  8 13  1  0  0  0  0
  9 10  1  0  0  0  0
 10 11  1  0  0  0  0
 11 12  1  0  0  0  0
 12 13  1  0  0  0  0
 14 15  4  0  0  0  0
 14 19  4  0  0  0  0
 15 16  4  0  0  0  0
 16 17  4  0  0  0  0
 17 18  4  0  0  0  0
 18 19  4  0  0  0  0
M  END
>  <Name_Molregno>
572509

>  <5-HT1A>
6.89

>  <Dopamine transporter>
5.33

>  <Norepinephrine transporter>
6.26

>  <Serotonin transporter>
5.73

$$$$
572516
  Marvin  02231216192D 0   1.00000     0.00000     0

 22 24  0  0  0  0  0  0  0  0999 V2000
    2.4060    3.0169    0.0000 F   0  0  0  0  0  0  0  0  0
    2.4060    2.1919    0.0000 C   0  0  0  0  0  0  0  0  0
    3.1205    1.7794    0.0000 C   0  0  0  0  0  0  0  0  0
    3.1205    0.9544    0.0000 C   0  0  0  0  0  0  0  0  0
    3.8350    0.5419    0.0000 C   0  0  0  0  0  0  0  0  0
    4.5495    0.9544    0.0000 C   0  0  0  0  0  0  0  0  0
    5.2639    0.5419    0.0000 C   0  0  0  0  0  0  0  0  0
    5.2639   -0.2831    0.0000 N   0  0  0  0  0  0  0  0  0
    4.5495   -0.6956    0.0000 C   0  0  0  0  0  0  0  0  0
    3.8350   -0.2831    0.0000 C   0  0  0  0  0  0  0  0  0
    2.4060    0.5419    0.0000 C   0  0  0  0  0  0  0  0  0
    2.4060   -0.2831    0.0000 O   0  0  0  0  0  0  0  0  0
    3.1205   -0.6956    0.0000 C   0  0  0  0  0  0  0  0  0
    3.1205   -1.5206    0.0000 C   0  0  0  0  0  0  0  0  0
    3.8350   -1.9331    0.0000 C   0  0  0  0  0  0  0  0  0
    3.8350   -2.7581    0.0000 C   0  0  0  0  0  0  0  0  0
    3.1205   -3.1706    0.0000 C   0  0  0  0  0  0  0  0  0
    3.1205   -3.9956    0.0000 F   0  0  0  0  0  0  0  0  0
    2.4060   -2.7581    0.0000 C   0  0  0  0  0  0  0  0  0
    2.4060   -1.9331    0.0000 C   0  0  0  0  0  0  0  0  0
    1.6916    0.9544    0.0000 C   0  0  0  0  0  0  0  0  0
    1.6916    1.7794    0.0000 C   0  0  0  0  0  0  0  0  0
  1  2  1  0  0  0  0
  2  3  4  0  0  0  0
  2 22  4  0  0  0  0
  3  4  4  0  0  0  0
  4  5  1  0  0  0  0
  4 11  4  0  0  0  0
  5  6  1  0  0  0  0
  5 10  1  0  0  0  0
  6  7  1  0  0  0  0
  7  8  1  0  0  0  0
  8  9  1  0  0  0  0
  9 10  1  0  0  0  0
 11 12  1  0  0  0  0
 11 21  4  0  0  0  0
 12 13  1  0  0  0  0
 13 14  1  0  0  0  0
 14 15  4  0  0  0  0
 14 20  4  0  0  0  0
 15 16  4  0  0  0  0
 16 17  4  0  0  0  0
 17 18  1  0  0  0  0
 17 19  4  0  0  0  0
 19 20  4  0  0  0  0
 21 22  4  0  0  0  0
M  END
>  <Name_Molregno>
572516

>  <5-HT1A>
5.66

>  <Dopamine transporter>
6.18

>  <Norepinephrine transporter>
8.7

>  <Serotonin transporter>
8.7

$$$$
572531
  Marvin  02231216192D 0   1.00000     0.00000     0

 22 24  0  0  0  0  0  0  0  0999 V2000
    2.4060    3.0169    0.0000 Cl  0  0  0  0  0  0  0  0  0
    2.4060    2.1919    0.0000 C   0  0  0  0  0  0  0  0  0
    3.1205    1.7794    0.0000 C   0  0  0  0  0  0  0  0  0
    3.1205    0.9544    0.0000 C   0  0  0  0  0  0  0  0  0
    3.8350    0.5419    0.0000 C   0  0  0  0  0  0  0  0  0
    4.5495    0.9544    0.0000 C   0  0  0  0  0  0  0  0  0
    5.2639    0.5419    0.0000 C   0  0  0  0  0  0  0  0  0
    5.2639   -0.2831    0.0000 N   0  0  0  0  0  0  0  0  0
    4.5495   -0.6956    0.0000 C   0  0  0  0  0  0  0  0  0
    3.8350   -0.2831    0.0000 C   0  0  0  0  0  0  0  0  0
    2.4060    0.5419    0.0000 C   0  0  0  0  0  0  0  0  0
    2.4060   -0.2831    0.0000 O   0  0  0  0  0  0  0  0  0
    3.1205   -0.6956    0.0000 C   0  0  0  0  0  0  0  0  0
    3.1205   -1.5206    0.0000 C   0  0  0  0  0  0  0  0  0
    3.8350   -1.9331    0.0000 C   0  0  0  0  0  0  0  0  0
    3.8350   -2.7581    0.0000 C   0  0  0  0  0  0  0  0  0
    3.1205   -3.1706    0.0000 C   0  0  0  0  0  0  0  0  0
    3.1205   -3.9956    0.0000 F   0  0  0  0  0  0  0  0  0
    2.4060   -2.7581    0.0000 C   0  0  0  0  0  0  0  0  0
    2.4060   -1.9331    0.0000 C   0  0  0  0  0  0  0  0  0
    1.6916    0.9544    0.0000 C   0  0  0  0  0  0  0  0  0
    1.6916    1.7794    0.0000 C   0  0  0  0  0  0  0  0  0
  1  2  1  0  0  0  0
  2  3  4  0  0  0  0
  2 22  4  0  0  0  0
  3  4  4  0  0  0  0
  4  5  1  0  0  0  0
  4 11  4  0  0  0  0
  5  6  1  0  0  0  0
  5 10  1  0  0  0  0
  6  7  1  0  0  0  0
  7  8  1  0  0  0  0
  8  9  1  0  0  0  0
  9 10  1  0  0  0  0
 11 12  1  0  0  0  0
 11 21  4  0  0  0  0
 12 13  1  0  0  0  0
 13 14  1  0  0  0  0
 14 15  4  0  0  0  0
 14 20  4  0  0  0  0
 15 16  4  0  0  0  0
 16 17  4  0  0  0  0
 17 18  1  0  0  0  0
 17 19  4  0  0  0  0
 19 20  4  0  0  0  0
 21 22  4  0  0  0  0
M  END
>  <Name_Molregno>
572531

>  <5-HT1A>
6

>  <Dopamine transporter>
5.26

>  <Norepinephrine transporter>
8.22

>  <Serotonin transporter>
7.4

$$$$
572532
  Marvin  02231216192D 0   1.00000     0.00000     0

 23 25  0  0  0  0  0  0  0  0999 V2000
    2.2694    2.7464    0.0000 Cl  0  0  0  0  0  0  0  0  0
    2.2694    1.9214    0.0000 C   0  0  0  0  0  0  0  0  0
    2.9839    1.5089    0.0000 C   0  0  0  0  0  0  0  0  0
    2.9839    0.6839    0.0000 C   0  0  0  0  0  0  0  0  0
    2.2694    0.2714    0.0000 C   0  0  0  0  0  0  0  0  0
    1.5549    0.6839    0.0000 C   0  0  0  0  0  0  0  0  0
    1.5549    1.5089    0.0000 C   0  0  0  0  0  0  0  0  0
    0.8405    1.9214    0.0000 Cl  0  0  0  0  0  0  0  0  0
    3.6983    0.2714    0.0000 C   0  0  0  0  0  0  0  0  0
    3.6983   -0.5536    0.0000 O   0  0  0  0  0  0  0  0  0
    4.4128   -0.9661    0.0000 C   0  0  0  0  0  0  0  0  0
    5.1273   -0.5536    0.0000 C   0  0  0  0  0  0  0  0  0
    5.8418   -0.9661    0.0000 C   0  0  0  0  0  0  0  0  0
    5.8418   -1.7911    0.0000 C   0  0  0  0  0  0  0  0  0
    6.5562   -2.2036    0.0000 F   0  0  0  0  0  0  0  0  0
    5.1273   -2.2036    0.0000 C   0  0  0  0  0  0  0  0  0
    4.4128   -1.7911    0.0000 C   0  0  0  0  0  0  0  0  0
    3.6983   -2.2036    0.0000 C   0  0  0  0  0  0  0  0  0
    3.6983   -3.0286    0.0000 C   0  0  0  0  0  0  0  0  0
    2.9839   -3.4411    0.0000 C   0  0  0  0  0  0  0  0  0
    2.2694   -3.0286    0.0000 N   0  0  0  0  0  0  0  0  0
    2.2694   -2.2036    0.0000 C   0  0  0  0  0  0  0  0  0
    2.9839   -1.7911    0.0000 C   0  0  0  0  0  0  0  0  0
  1  2  1  0  0  0  0
  2  3  4  0  0  0  0
  2  7  4  0  0  0  0
  3  4  4  0  0  0  0
  4  5  4  0  0  0  0
  4  9  1  0  0  0  0
  5  6  4  0  0  0  0
  6  7  4  0  0  0  0
  7  8  1  0  0  0  0
  9 10  1  0  0  0  0
 10 11  1  0  0  0  0
 11 12  4  0  0  0  0
 11 17  4  0  0  0  0
 12 13  4  0  0  0  0
 13 14  4  0  0  0  0
 14 15  1  0  0  0  0
 14 16  4  0  0  0  0
 16 17  4  0  0  0  0
 17 18  1  0  0  0  0
 18 19  1  0  0  0  0
 18 23  1  0  0  0  0
 19 20  1  0  0  0  0
 20 21  1  0  0  0  0
 21 22  1  0  0  0  0
 22 23  1  0  0  0  0
M  END
>  <Name_Molregno>
572532

>  <5-HT1A>
5.94

>  <Dopamine transporter>
6.34

>  <Norepinephrine transporter>
7.7

>  <Serotonin transporter>
8.7

$$$$
572533
  Marvin  02231216192D 0   1.00000     0.00000     0

 20 22  0  0  0  0  0  0  0  0999 V2000
    3.2021    3.6932    0.0000 F   0  0  0  0  0  0  0  0  0
    3.2021    2.8682    0.0000 C   0  0  0  0  0  0  0  0  0
    3.9166    2.4557    0.0000 C   0  0  0  0  0  0  0  0  0
    3.9166    1.6307    0.0000 C   0  0  0  0  0  0  0  0  0
    3.2021    1.2182    0.0000 C   0  0  0  0  0  0  0  0  0
    3.2021    0.3932    0.0000 O   0  0  0  0  0  0  0  0  0
    3.9166   -0.0193    0.0000 C   0  0  0  0  0  0  0  0  0
    4.6310    0.3932    0.0000 C   0  0  0  0  0  0  0  0  0
    5.3455   -0.0193    0.0000 C   0  0  0  0  0  0  0  0  0
    5.3455   -0.8443    0.0000 C   0  0  0  0  0  0  0  0  0
    4.6310   -1.2568    0.0000 C   0  0  0  0  0  0  0  0  0
    3.9166   -0.8443    0.0000 C   0  0  0  0  0  0  0  0  0
    3.2021   -1.2568    0.0000 N   0  0  0  0  0  0  0  0  0
    3.2021   -2.0818    0.0000 C   0  0  0  0  0  0  0  0  0
    2.4876   -2.4943    0.0000 C   0  0  0  0  0  0  0  0  0
    1.7732   -2.0818    0.0000 N   0  0  0  0  0  0  0  0  0
    1.7732   -1.2568    0.0000 C   0  0  0  0  0  0  0  0  0
    2.4876   -0.8443    0.0000 C   0  0  0  0  0  0  0  0  0
    2.4876    1.6307    0.0000 C   0  0  0  0  0  0  0  0  0
    2.4876    2.4557    0.0000 C   0  0  0  0  0  0  0  0  0
  1  2  1  0  0  0  0
  2  3  4  0  0  0  0
  2 20  4  0  0  0  0
  3  4  4  0  0  0  0
  4  5  4  0  0  0  0
  5  6  1  0  0  0  0
  5 19  4  0  0  0  0
  6  7  1  0  0  0  0
  7  8  4  0  0  0  0
  7 12  4  0  0  0  0
  8  9  4  0  0  0  0
  9 10  4  0  0  0  0
 10 11  4  0  0  0  0
 11 12  4  0  0  0  0
 12 13  1  0  0  0  0
 13 14  1  0  0  0  0
 13 18  1  0  0  0  0
 14 15  1  0  0  0  0
 15 16  1  0  0  0  0
 16 17  1  0  0  0  0
 17 18  1  0  0  0  0
 19 20  4  0  0  0  0
M  END
>  <Name_Molregno>
572533

>  <5-HT1A>
8.1

>  <Dopamine transporter>
5.35

>  <Norepinephrine transporter>
5.77

>  <Serotonin transporter>
6

$$$$
572534
  Marvin  02231216192D 0   1.00000     0.00000     0

 20 22  0  0  0  0  0  0  0  0999 V2000
    0.8600    0.8106    0.0000 F   0  0  0  0  0  0  0  0  0
    0.8600   -0.0144    0.0000 C   0  0  0  0  0  0  0  0  0
    1.5745   -0.4269    0.0000 C   0  0  0  0  0  0  0  0  0
    1.5745   -1.2519    0.0000 C   0  0  0  0  0  0  0  0  0
    2.2889   -1.6644    0.0000 O   0  0  0  0  0  0  0  0  0
    3.0034   -1.2519    0.0000 C   0  0  0  0  0  0  0  0  0
    3.0034   -0.4269    0.0000 C   0  0  0  0  0  0  0  0  0
    3.7179   -0.0144    0.0000 C   0  0  0  0  0  0  0  0  0
    4.4323   -0.4269    0.0000 C   0  0  0  0  0  0  0  0  0
    4.4323   -1.2519    0.0000 C   0  0  0  0  0  0  0  0  0
    3.7179   -1.6644    0.0000 C   0  0  0  0  0  0  0  0  0
    3.7179   -2.4894    0.0000 N   0  0  0  0  0  0  0  0  0
    4.4323   -2.9019    0.0000 C   0  0  0  0  0  0  0  0  0
    4.4323   -3.7269    0.0000 C   0  0  0  0  0  0  0  0  0
    3.7179   -4.1394    0.0000 N   0  0  0  0  0  0  0  0  0
    3.0034   -3.7269    0.0000 C   0  0  0  0  0  0  0  0  0
    3.0034   -2.9019    0.0000 C   0  0  0  0  0  0  0  0  0
    0.8600   -1.6644    0.0000 C   0  0  0  0  0  0  0  0  0
    0.1455   -1.2519    0.0000 C   0  0  0  0  0  0  0  0  0
    0.1455   -0.4269    0.0000 C   0  0  0  0  0  0  0  0  0
  1  2  1  0  0  0  0
  2  3  4  0  0  0  0
  2 20  4  0  0  0  0
  3  4  4  0  0  0  0
  4  5  1  0  0  0  0
  4 18  4  0  0  0  0
  5  6  1  0  0  0  0
  6  7  4  0  0  0  0
  6 11  4  0  0  0  0
  7  8  4  0  0  0  0
  8  9  4  0  0  0  0
  9 10  4  0  0  0  0
 10 11  4  0  0  0  0
 11 12  1  0  0  0  0
 12 13  1  0  0  0  0
 12 17  1  0  0  0  0
 13 14  1  0  0  0  0
 14 15  1  0  0  0  0
 15 16  1  0  0  0  0
 16 17  1  0  0  0  0
 18 19  4  0  0  0  0
 19 20  4  0  0  0  0
M  END
>  <Name_Molregno>
572534

>  <5-HT1A>
8.05

>  <Dopamine transporter>
5.15

>  <Norepinephrine transporter>
5.76

>  <Serotonin transporter>
5.51

$$$$
572550
  Marvin  02231216192D 0   1.00000     0.00000     0

 20 22  0  0  0  0  0  0  0  0999 V2000
   -0.7159    0.2271    0.0000 O   0  0  0  0  0  0  0  0  0
   -1.4304   -0.1854    0.0000 C   0  0  0  0  0  0  0  0  0
   -1.4304   -1.0104    0.0000 C   0  0  0  0  0  0  0  0  0
   -0.7159   -1.4229    0.0000 C   0  0  0  0  0  0  0  0  0
   -0.7159   -2.2479    0.0000 C   0  0  0  0  0  0  0  0  0
   -1.4304   -2.6604    0.0000 C   0  0  0  0  0  0  0  0  0
   -2.1449   -2.2479    0.0000 C   0  0  0  0  0  0  0  0  0
   -2.1449   -1.4229    0.0000 C   0  0  0  0  0  0  0  0  0
   -0.7159    1.0521    0.0000 C   0  0  0  0  0  0  0  0  0
   -1.4304    1.4646    0.0000 C   0  0  0  0  0  0  0  0  0
   -1.4304    2.2896    0.0000 C   0  0  0  0  0  0  0  0  0
   -0.7159    2.7021    0.0000 C   0  0  0  0  0  0  0  0  0
   -0.0014    2.2896    0.0000 C   0  0  0  0  0  0  0  0  0
   -0.0014    1.4646    0.0000 C   0  0  0  0  0  0  0  0  0
    0.7130    1.0521    0.0000 N   0  0  0  0  0  0  0  0  0
    1.4275    1.4646    0.0000 C   0  0  0  0  0  0  0  0  0
    2.1420    1.0521    0.0000 C   0  0  0  0  0  0  0  0  0
    2.1420    0.2271    0.0000 N   0  0  0  0  0  0  0  0  0
    1.4275   -0.1854    0.0000 C   0  0  0  0  0  0  0  0  0
    0.7130    0.2271    0.0000 C   0  0  0  0  0  0  0  0  0
  1  2  1  0  0  0  0
  1  9  1  0  0  0  0
  2  3  1  0  0  0  0
  3  4  4  0  0  0  0
  3  8  4  0  0  0  0
  4  5  4  0  0  0  0
  5  6  4  0  0  0  0
  6  7  4  0  0  0  0
  7  8  4  0  0  0  0
  9 10  4  0  0  0  0
  9 14  4  0  0  0  0
 10 11  4  0  0  0  0
 11 12  4  0  0  0  0
 12 13  4  0  0  0  0
 13 14  4  0  0  0  0
 14 15  1  0  0  0  0
 15 16  1  0  0  0  0
 15 20  1  0  0  0  0
 16 17  1  0  0  0  0
 17 18  1  0  0  0  0
 18 19  1  0  0  0  0
 19 20  1  0  0  0  0
M  END
>  <Name_Molregno>
572550

>  <5-HT1A>
7.55

>  <Dopamine transporter>
5.06

>  <Norepinephrine transporter>
6.77

>  <Serotonin transporter>
5.94

$$$$
572551
  Marvin  02231216192D 0   1.00000     0.00000     0

 21 23  0  0  0  0  0  0  0  0999 V2000
    3.7582   -0.5204    0.0000 F   0  0  0  0  0  0  0  0  0
    3.7582   -1.3454    0.0000 C   0  0  0  0  0  0  0  0  0
    4.4727   -1.7579    0.0000 C   0  0  0  0  0  0  0  0  0
    4.4727   -2.5829    0.0000 C   0  0  0  0  0  0  0  0  0
    3.7582   -2.9954    0.0000 C   0  0  0  0  0  0  0  0  0
    3.0438   -2.5829    0.0000 C   0  0  0  0  0  0  0  0  0
    3.0438   -1.7579    0.0000 C   0  0  0  0  0  0  0  0  0
    2.3293   -1.3454    0.0000 C   0  0  0  0  0  0  0  0  0
    2.3293   -0.5204    0.0000 O   0  0  0  0  0  0  0  0  0
    1.6148   -0.1079    0.0000 C   0  0  0  0  0  0  0  0  0
    0.9004   -0.5204    0.0000 C   0  0  0  0  0  0  0  0  0
    0.1859   -0.1079    0.0000 C   0  0  0  0  0  0  0  0  0
    0.1859    0.7171    0.0000 C   0  0  0  0  0  0  0  0  0
    0.9004    1.1296    0.0000 C   0  0  0  0  0  0  0  0  0
    1.6148    0.7171    0.0000 C   0  0  0  0  0  0  0  0  0
    2.3293    1.1296    0.0000 N   0  0  0  0  0  0  0  0  0
    2.3293    1.9546    0.0000 C   0  0  0  0  0  0  0  0  0
    3.0438    2.3671    0.0000 C   0  0  0  0  0  0  0  0  0
    3.7582    1.9546    0.0000 N   0  0  0  0  0  0  0  0  0
    3.7582    1.1296    0.0000 C   0  0  0  0  0  0  0  0  0
    3.0438    0.7171    0.0000 C   0  0  0  0  0  0  0  0  0
  1  2  1  0  0  0  0
  2  3  4  0  0  0  0
  2  7  4  0  0  0  0
  3  4  4  0  0  0  0
  4  5  4  0  0  0  0
  5  6  4  0  0  0  0
  6  7  4  0  0  0  0
  7  8  1  0  0  0  0
  8  9  1  0  0  0  0
  9 10  1  0  0  0  0
 10 11  4  0  0  0  0
 10 15  4  0  0  0  0
 11 12  4  0  0  0  0
 12 13  4  0  0  0  0
 13 14  4  0  0  0  0
 14 15  4  0  0  0  0
 15 16  1  0  0  0  0
 16 17  1  0  0  0  0
 16 21  1  0  0  0  0
 17 18  1  0  0  0  0
 18 19  1  0  0  0  0
 19 20  1  0  0  0  0
 20 21  1  0  0  0  0
M  END
>  <Name_Molregno>
572551

>  <5-HT1A>
7.51

>  <Dopamine transporter>
5

>  <Norepinephrine transporter>
6.28

>  <Serotonin transporter>
6.01

$$$$
572552
  Marvin  02231216192D 0   1.00000     0.00000     0

 19 21  0  0  0  0  0  0  0  0999 V2000
   -0.1560    0.1727    0.0000 O   0  0  0  0  0  0  0  0  0
   -0.1560   -0.6523    0.0000 C   0  0  0  0  0  0  0  0  0
    0.5585   -1.0648    0.0000 C   0  0  0  0  0  0  0  0  0
    0.5585   -1.8898    0.0000 C   0  0  0  0  0  0  0  0  0
   -0.1560   -2.3023    0.0000 C   0  0  0  0  0  0  0  0  0
   -0.8704   -1.8898    0.0000 C   0  0  0  0  0  0  0  0  0
   -0.8704   -1.0648    0.0000 C   0  0  0  0  0  0  0  0  0
   -1.5849   -0.6523    0.0000 C   0  0  0  0  0  0  0  0  0
   -2.2994   -1.0648    0.0000 C   0  0  0  0  0  0  0  0  0
   -3.0139   -0.6523    0.0000 C   0  0  0  0  0  0  0  0  0
   -3.0139    0.1727    0.0000 N   0  0  0  0  0  0  0  0  0
   -2.2994    0.5852    0.0000 C   0  0  0  0  0  0  0  0  0
   -1.5849    0.1727    0.0000 C   0  0  0  0  0  0  0  0  0
    0.5585    0.5852    0.0000 C   0  0  0  0  0  0  0  0  0
    0.5585    1.4102    0.0000 C   0  0  0  0  0  0  0  0  0
    1.2730    1.8227    0.0000 C   0  0  0  0  0  0  0  0  0
    1.9874    1.4102    0.0000 C   0  0  0  0  0  0  0  0  0
    1.9874    0.5852    0.0000 C   0  0  0  0  0  0  0  0  0
    1.2730    0.1727    0.0000 C   0  0  0  0  0  0  0  0  0
  1  2  1  0  0  0  0
  1 14  1  0  0  0  0
  2  3  4  0  0  0  0
  2  7  4  0  0  0  0
  3  4  4  0  0  0  0
  4  5  4  0  0  0  0
  5  6  4  0  0  0  0
  6  7  4  0  0  0  0
  7  8  1  0  0  0  0
  8  9  1  0  0  0  0
  8 13  1  0  0  0  0
  9 10  1  0  0  0  0
 10 11  1  0  0  0  0
 11 12  1  0  0  0  0
 12 13  1  0  0  0  0
 14 15  4  0  0  0  0
 14 19  4  0  0  0  0
 15 16  4  0  0  0  0
 16 17  4  0  0  0  0
 17 18  4  0  0  0  0
 18 19  4  0  0  0  0
M  END
>  <Name_Molregno>
572552

>  <5-HT1A>
7.2

>  <Dopamine transporter>
6.55

>  <Norepinephrine transporter>
6.38

>  <Serotonin transporter>
5.75

$$$$
572562
  Marvin  02231216192D 0   1.00000     0.00000     0

 20 22  0  0  0  0  0  0  0  0999 V2000
    3.2021    3.6932    0.0000 F   0  0  0  0  0  0  0  0  0
    3.2021    2.8682    0.0000 C   0  0  0  0  0  0  0  0  0
    3.9166    2.4557    0.0000 C   0  0  0  0  0  0  0  0  0
    3.9166    1.6307    0.0000 C   0  0  0  0  0  0  0  0  0
    3.2021    1.2182    0.0000 C   0  0  0  0  0  0  0  0  0
    3.2021    0.3932    0.0000 O   0  0  0  0  0  0  0  0  0
    3.9166   -0.0193    0.0000 C   0  0  0  0  0  0  0  0  0
    4.6310    0.3932    0.0000 C   0  0  0  0  0  0  0  0  0
    5.3455   -0.0193    0.0000 C   0  0  0  0  0  0  0  0  0
    5.3455   -0.8443    0.0000 C   0  0  0  0  0  0  0  0  0
    4.6310   -1.2568    0.0000 C   0  0  0  0  0  0  0  0  0
    3.9166   -0.8443    0.0000 C   0  0  0  0  0  0  0  0  0
    3.2021   -1.2568    0.0000 C   0  0  0  0  0  0  0  0  0
    3.2021   -2.0818    0.0000 C   0  0  0  0  0  0  0  0  0
    2.4876   -2.4943    0.0000 C   0  0  0  0  0  0  0  0  0
    1.7732   -2.0818    0.0000 N   0  0  0  0  0  0  0  0  0
    1.7732   -1.2568    0.0000 C   0  0  0  0  0  0  0  0  0
    2.4876   -0.8443    0.0000 C   0  0  0  0  0  0  0  0  0
    2.4876    1.6307    0.0000 C   0  0  0  0  0  0  0  0  0
    2.4876    2.4557    0.0000 C   0  0  0  0  0  0  0  0  0
  1  2  1  0  0  0  0
  2  3  4  0  0  0  0
  2 20  4  0  0  0  0
  3  4  4  0  0  0  0
  4  5  4  0  0  0  0
  5  6  1  0  0  0  0
  5 19  4  0  0  0  0
  6  7  1  0  0  0  0
  7  8  4  0  0  0  0
  7 12  4  0  0  0  0
  8  9  4  0  0  0  0
  9 10  4  0  0  0  0
 10 11  4  0  0  0  0
 11 12  4  0  0  0  0
 12 13  1  0  0  0  0
 13 14  1  0  0  0  0
 13 18  1  0  0  0  0
 14 15  1  0  0  0  0
 15 16  1  0  0  0  0
 16 17  1  0  0  0  0
 17 18  1  0  0  0  0
 19 20  4  0  0  0  0
M  END
>  <Name_Molregno>
572562

>  <5-HT1A>
6.93

>  <Dopamine transporter>
7.89

>  <Norepinephrine transporter>
7.68

>  <Serotonin transporter>
6.5

$$$$
572563
  Marvin  02231216192D 0   1.00000     0.00000     0

 20 22  0  0  0  0  0  0  0  0999 V2000
    2.2590    3.9072    0.0000 F   0  0  0  0  0  0  0  0  0
    2.2590    3.0822    0.0000 C   0  0  0  0  0  0  0  0  0
    2.9734    2.6697    0.0000 C   0  0  0  0  0  0  0  0  0
    2.9734    1.8447    0.0000 C   0  0  0  0  0  0  0  0  0
    2.2590    1.4322    0.0000 C   0  0  0  0  0  0  0  0  0
    1.5445    1.8447    0.0000 C   0  0  0  0  0  0  0  0  0
    0.8300    1.4322    0.0000 O   0  0  0  0  0  0  0  0  0
    0.8300    0.6072    0.0000 C   0  0  0  0  0  0  0  0  0
    1.5445    0.1947    0.0000 C   0  0  0  0  0  0  0  0  0
    1.5445   -0.6303    0.0000 C   0  0  0  0  0  0  0  0  0
    0.8300   -1.0428    0.0000 C   0  0  0  0  0  0  0  0  0
    0.1156   -0.6303    0.0000 C   0  0  0  0  0  0  0  0  0
    0.1156    0.1947    0.0000 C   0  0  0  0  0  0  0  0  0
    1.5445    2.6697    0.0000 C   0  0  0  0  0  0  0  0  0
    0.8300    3.0822    0.0000 C   0  0  0  0  0  0  0  0  0
    0.1156    2.6697    0.0000 C   0  0  0  0  0  0  0  0  0
   -0.5989    3.0822    0.0000 C   0  0  0  0  0  0  0  0  0
   -0.5989    3.9072    0.0000 N   0  0  0  0  0  0  0  0  0
    0.1156    4.3197    0.0000 C   0  0  0  0  0  0  0  0  0
    0.8300    3.9072    0.0000 C   0  0  0  0  0  0  0  0  0
  1  2  1  0  0  0  0
  2  3  4  0  0  0  0
  2 14  4  0  0  0  0
  3  4  4  0  0  0  0
  4  5  4  0  0  0  0
  5  6  4  0  0  0  0
  6  7  1  0  0  0  0
  6 14  4  0  0  0  0
  7  8  1  0  0  0  0
  8  9  4  0  0  0  0
  8 13  4  0  0  0  0
  9 10  4  0  0  0  0
 10 11  4  0  0  0  0
 11 12  4  0  0  0  0
 12 13  4  0  0  0  0
 14 15  1  0  0  0  0
 15 16  1  0  0  0  0
 15 20  1  0  0  0  0
 16 17  1  0  0  0  0
 17 18  1  0  0  0  0
 18 19  1  0  0  0  0
 19 20  1  0  0  0  0
M  END
>  <Name_Molregno>
572563

>  <5-HT1A>
6.89

>  <Dopamine transporter>
7.35

>  <Norepinephrine transporter>
6.77

>  <Serotonin transporter>
6.15

$$$$
572576
  Marvin  02231216192D 0   1.00000     0.00000     0

 28 31  0  0  1  0  0  0  0  0999 V2000
    2.4419    3.2970    0.0000 Cl  0  0  0  0  0  0  0  0  0
    2.4419    2.4720    0.0000 C   0  0  0  0  0  0  0  0  0
    3.1564    2.0595    0.0000 C   0  0  0  0  0  0  0  0  0
    3.1564    1.2345    0.0000 C   0  0  0  0  0  0  0  0  0
    3.8708    0.8220    0.0000 N   0  0  0  0  0  0  0  0  0
    4.5853    1.2345    0.0000 C   0  0  0  0  0  0  0  0  0
    5.2998    0.8220    0.0000 C   0  0  0  0  0  0  0  0  0
    5.2998   -0.0030    0.0000 S   0  0  0  0  0  0  0  0  0
    4.5853   -0.4155    0.0000 C   0  0  0  0  0  0  0  0  0
    4.5853   -1.2405    0.0000 C   0  0  0  0  0  0  0  0  0
    5.2998   -1.6530    0.0000 C   0  0  0  0  0  0  0  0  0
    6.0143   -1.2405    0.0000 C   0  0  0  0  0  0  0  0  0
    6.7287   -1.6530    0.0000 C   0  0  0  0  0  0  0  0  0
    6.7287   -2.4780    0.0000 C   0  0  0  0  0  0  0  0  0
    6.0143   -2.8905    0.0000 C   0  0  0  0  0  0  0  0  0
    5.2998   -2.4780    0.0000 C   0  0  0  0  0  0  0  0  0
    4.5853   -2.8905    0.0000 N   0  0  0  0  0  0  0  0  0
    4.5853   -3.7155    0.0000 C   0  0  0  0  0  0  0  0  0
    3.8708   -4.1280    0.0000 C   0  0  0  0  0  0  0  0  0
    3.1564   -3.7155    0.0000 N   0  0  0  0  0  0  0  0  0
    3.1564   -2.8905    0.0000 C   0  0  0  0  0  0  0  0  0
    3.8708   -2.4780    0.0000 C   0  0  0  0  0  0  0  0  0
    3.8708   -0.0030    0.0000 C   0  0  0  0  0  0  0  0  0
    3.1564   -0.4155    0.0000 O   0  0  0  0  0  0  0  0  0
    2.4419    0.8220    0.0000 C   0  0  0  0  0  0  0  0  0
    1.7274    1.2345    0.0000 C   0  0  0  0  0  0  0  0  0
    1.7274    2.0595    0.0000 C   0  0  0  0  0  0  0  0  0
    1.0130    2.4720    0.0000 Cl  0  0  0  0  0  0  0  0  0
  1  2  1  0  0  0  0
  2  3  4  0  0  0  0
  2 27  4  0  0  0  0
  3  4  4  0  0  0  0
  4  5  1  0  0  0  0
  4 25  4  0  0  0  0
  5  6  1  0  0  0  0
  5 23  1  0  0  0  0
  6  7  1  0  0  0  0
  7  8  1  0  0  0  0
  8  9  1  0  0  0  0
  9 10  1  0  0  0  0
  9 23  1  0  0  0  0
 10 11  1  0  0  0  0
 11 12  4  0  0  0  0
 11 16  4  0  0  0  0
 12 13  4  0  0  0  0
 13 14  4  0  0  0  0
 14 15  4  0  0  0  0
 15 16  4  0  0  0  0
 16 17  1  0  0  0  0
 17 18  1  0  0  0  0
 17 22  1  0  0  0  0
 18 19  1  0  0  0  0
 19 20  1  0  0  0  0
 20 21  1  0  0  0  0
 21 22  1  0  0  0  0
 23 24  2  0  0  0  0
 25 26  4  0  0  0  0
 26 27  4  0  0  0  0
 27 28  1  0  0  0  0
M  END
>  <Name_Molregno>
572576

>  <5-HT1A>
8.05

>  <Dopamine transporter>
7.06

>  <Norepinephrine transporter>
8.3

>  <Serotonin transporter>
7.09

$$$$
572577
  Marvin  02231216192D 0   1.00000     0.00000     0

 20 22  0  0  0  0  0  0  0  0999 V2000
    2.6763    0.7613    0.0000 F   0  0  0  0  0  0  0  0  0
    2.6763   -0.0637    0.0000 C   0  0  0  0  0  0  0  0  0
    3.3907   -0.4763    0.0000 C   0  0  0  0  0  0  0  0  0
    3.3907   -1.3013    0.0000 C   0  0  0  0  0  0  0  0  0
    2.6763   -1.7138    0.0000 C   0  0  0  0  0  0  0  0  0
    1.9618   -1.3012    0.0000 C   0  0  0  0  0  0  0  0  0
    1.2473   -1.7137    0.0000 C   0  0  0  0  0  0  0  0  0
    1.2473   -2.5388    0.0000 C   0  0  0  0  0  0  0  0  0
    0.5328   -2.9513    0.0000 C   0  0  0  0  0  0  0  0  0
   -0.1816   -2.5387    0.0000 N   0  0  0  0  0  0  0  0  0
   -0.1816   -1.7137    0.0000 C   0  0  0  0  0  0  0  0  0
    0.5328   -1.3012    0.0000 C   0  0  0  0  0  0  0  0  0
    1.9618   -0.4762    0.0000 C   0  0  0  0  0  0  0  0  0
    1.2473   -0.0637    0.0000 O   0  0  0  0  0  0  0  0  0
    1.2473    0.7613    0.0000 C   0  0  0  0  0  0  0  0  0
    0.5328    1.1738    0.0000 C   0  0  0  0  0  0  0  0  0
    0.5328    1.9988    0.0000 C   0  0  0  0  0  0  0  0  0
    1.2473    2.4113    0.0000 C   0  0  0  0  0  0  0  0  0
    1.9618    1.9988    0.0000 C   0  0  0  0  0  0  0  0  0
    1.9618    1.1738    0.0000 C   0  0  0  0  0  0  0  0  0
  1  2  1  0  0  0  0
  2  3  4  0  0  0  0
  2 13  4  0  0  0  0
  3  4  4  0  0  0  0
  4  5  4  0  0  0  0
  5  6  4  0  0  0  0
  6  7  1  0  0  0  0
  6 13  4  0  0  0  0
  7  8  1  0  0  0  0
  7 12  1  0  0  0  0
  8  9  1  0  0  0  0
  9 10  1  0  0  0  0
 10 11  1  0  0  0  0
 11 12  1  0  0  0  0
 13 14  1  0  0  0  0
 14 15  1  0  0  0  0
 15 16  4  0  0  0  0
 15 20  4  0  0  0  0
 16 17  4  0  0  0  0
 17 18  4  0  0  0  0
 18 19  4  0  0  0  0
 19 20  4  0  0  0  0
M  END
>  <Name_Molregno>
572577

>  <5-HT1A>
7.7

>  <Dopamine transporter>
6.62

>  <Norepinephrine transporter>
5.86

>  <Serotonin transporter>
5.63

$$$$
572578
  Marvin  02231216192D 0   1.00000     0.00000     0

 20 22  0  0  0  0  0  0  0  0999 V2000
    0.8600    0.8106    0.0000 F   0  0  0  0  0  0  0  0  0
    0.8600   -0.0144    0.0000 C   0  0  0  0  0  0  0  0  0
    1.5745   -0.4269    0.0000 C   0  0  0  0  0  0  0  0  0
    1.5745   -1.2519    0.0000 C   0  0  0  0  0  0  0  0  0
    2.2889   -1.6644    0.0000 O   0  0  0  0  0  0  0  0  0
    3.0034   -1.2519    0.0000 C   0  0  0  0  0  0  0  0  0
    3.0034   -0.4269    0.0000 C   0  0  0  0  0  0  0  0  0
    3.7179   -0.0144    0.0000 C   0  0  0  0  0  0  0  0  0
    4.4323   -0.4269    0.0000 C   0  0  0  0  0  0  0  0  0
    4.4323   -1.2519    0.0000 C   0  0  0  0  0  0  0  0  0
    3.7179   -1.6644    0.0000 C   0  0  0  0  0  0  0  0  0
    3.7179   -2.4894    0.0000 C   0  0  0  0  0  0  0  0  0
    4.4323   -2.9019    0.0000 C   0  0  0  0  0  0  0  0  0
    4.4323   -3.7269    0.0000 C   0  0  0  0  0  0  0  0  0
    3.7179   -4.1394    0.0000 N   0  0  0  0  0  0  0  0  0
    3.0034   -3.7269    0.0000 C   0  0  0  0  0  0  0  0  0
    3.0034   -2.9019    0.0000 C   0  0  0  0  0  0  0  0  0
    0.8600   -1.6644    0.0000 C   0  0  0  0  0  0  0  0  0
    0.1455   -1.2519    0.0000 C   0  0  0  0  0  0  0  0  0
    0.1455   -0.4269    0.0000 C   0  0  0  0  0  0  0  0  0
  1  2  1  0  0  0  0
  2  3  4  0  0  0  0
  2 20  4  0  0  0  0
  3  4  4  0  0  0  0
  4  5  1  0  0  0  0
  4 18  4  0  0  0  0
  5  6  1  0  0  0  0
  6  7  4  0  0  0  0
  6 11  4  0  0  0  0
  7  8  4  0  0  0  0
  8  9  4  0  0  0  0
  9 10  4  0  0  0  0
 10 11  4  0  0  0  0
 11 12  1  0  0  0  0
 12 13  1  0  0  0  0
 12 17  1  0  0  0  0
 13 14  1  0  0  0  0
 14 15  1  0  0  0  0
 15 16  1  0  0  0  0
 16 17  1  0  0  0  0
 18 19  4  0  0  0  0
 19 20  4  0  0  0  0
M  END
>  <Name_Molregno>
572578

>  <5-HT1A>
7.96

>  <Dopamine transporter>
6.78

>  <Norepinephrine transporter>
7.96

>  <Serotonin transporter>
6.05

$$$$
572579
  Marvin  02231216192D 0   1.00000     0.00000     0

 21 23  0  0  0  0  0  0  0  0999 V2000
    3.4747    2.1306    0.0000 F   0  0  0  0  0  0  0  0  0
    3.4747    1.3056    0.0000 C   0  0  0  0  0  0  0  0  0
    4.1892    0.8931    0.0000 C   0  0  0  0  0  0  0  0  0
    4.1892    0.0681    0.0000 C   0  0  0  0  0  0  0  0  0
    3.4747   -0.3444    0.0000 C   0  0  0  0  0  0  0  0  0
    2.7602    0.0681    0.0000 C   0  0  0  0  0  0  0  0  0
    2.0458   -0.3444    0.0000 O   0  0  0  0  0  0  0  0  0
    2.0458   -1.1694    0.0000 C   0  0  0  0  0  0  0  0  0
    2.7602   -1.5819    0.0000 C   0  0  0  0  0  0  0  0  0
    2.7602   -2.4069    0.0000 C   0  0  0  0  0  0  0  0  0
    3.4747   -2.8194    0.0000 F   0  0  0  0  0  0  0  0  0
    2.0458   -2.8194    0.0000 C   0  0  0  0  0  0  0  0  0
    1.3313   -2.4069    0.0000 C   0  0  0  0  0  0  0  0  0
    1.3313   -1.5819    0.0000 C   0  0  0  0  0  0  0  0  0
    2.7602    0.8931    0.0000 C   0  0  0  0  0  0  0  0  0
    2.0458    1.3056    0.0000 C   0  0  0  0  0  0  0  0  0
    1.3313    0.8931    0.0000 C   0  0  0  0  0  0  0  0  0
    0.6168    1.3056    0.0000 C   0  0  0  0  0  0  0  0  0
    0.6168    2.1306    0.0000 N   0  0  0  0  0  0  0  0  0
    1.3313    2.5431    0.0000 C   0  0  0  0  0  0  0  0  0
    2.0458    2.1306    0.0000 C   0  0  0  0  0  0  0  0  0
  1  2  1  0  0  0  0
  2  3  4  0  0  0  0
  2 15  4  0  0  0  0
  3  4  4  0  0  0  0
  4  5  4  0  0  0  0
  5  6  4  0  0  0  0
  6  7  1  0  0  0  0
  6 15  4  0  0  0  0
  7  8  1  0  0  0  0
  8  9  4  0  0  0  0
  8 14  4  0  0  0  0
  9 10  4  0  0  0  0
 10 11  1  0  0  0  0
 10 12  4  0  0  0  0
 12 13  4  0  0  0  0
 13 14  4  0  0  0  0
 15 16  1  0  0  0  0
 16 17  1  0  0  0  0
 16 21  1  0  0  0  0
 17 18  1  0  0  0  0
 18 19  1  0  0  0  0
 19 20  1  0  0  0  0
 20 21  1  0  0  0  0
M  END
>  <Name_Molregno>
572579

>  <5-HT1A>
7.68

>  <Dopamine transporter>
6.86

>  <Norepinephrine transporter>
7.74

>  <Serotonin transporter>
5.98

$$$$
572589
  Marvin  02231216192D 0   1.00000     0.00000     0

 28 31  0  0  0  0  0  0  0  0999 V2000
   -1.3304   -1.9090    0.0000 S   0  0  0  0  0  0  0  0  0
   -1.3304   -2.7340    0.0000 C   0  0  0  0  0  0  0  0  0
   -0.6159   -3.1465    0.0000 C   0  0  0  0  0  0  0  0  0
    0.0986   -2.7340    0.0000 N   0  0  0  0  0  0  0  0  0
    0.8130   -3.1465    0.0000 C   0  0  0  0  0  0  0  0  0
    1.5275   -2.7340    0.0000 C   0  0  0  0  0  0  0  0  0
    2.2420   -3.1465    0.0000 C   0  0  0  0  0  0  0  0  0
    2.2420   -3.9715    0.0000 C   0  0  0  0  0  0  0  0  0
    2.9564   -4.3840    0.0000 F   0  0  0  0  0  0  0  0  0
    1.5275   -4.3840    0.0000 C   0  0  0  0  0  0  0  0  0
    0.8130   -3.9715    0.0000 C   0  0  0  0  0  0  0  0  0
    0.0986   -4.3840    0.0000 F   0  0  0  0  0  0  0  0  0
    0.0986   -1.9090    0.0000 C   0  0  0  0  0  0  0  0  0
    0.8130   -1.4965    0.0000 O   0  0  0  0  0  0  0  0  0
   -0.6159   -1.4965    0.0000 C   0  0  0  0  0  0  0  0  0
   -0.6159   -0.6715    0.0000 C   0  0  0  0  0  0  0  0  0
   -1.3304   -0.2590    0.0000 C   0  0  0  0  0  0  0  0  0
   -2.0449   -0.6715    0.0000 C   0  0  0  0  0  0  0  0  0
   -2.7593   -0.2590    0.0000 C   0  0  0  0  0  0  0  0  0
   -2.7593    0.5660    0.0000 C   0  0  0  0  0  0  0  0  0
   -2.0449    0.9785    0.0000 C   0  0  0  0  0  0  0  0  0
   -1.3304    0.5660    0.0000 C   0  0  0  0  0  0  0  0  0
   -0.6159    0.9785    0.0000 N   0  0  0  0  0  0  0  0  0
   -0.6159    1.8035    0.0000 C   0  0  0  0  0  0  0  0  0
    0.0986    2.2160    0.0000 C   0  0  0  0  0  0  0  0  0
    0.8130    1.8035    0.0000 N   0  0  0  0  0  0  0  0  0
    0.8130    0.9785    0.0000 C   0  0  0  0  0  0  0  0  0
    0.0986    0.5660    0.0000 C   0  0  0  0  0  0  0  0  0
  1  2  1  0  0  0  0
  1 15  1  0  0  0  0
  2  3  1  0  0  0  0
  3  4  1  0  0  0  0
  4  5  1  0  0  0  0
  4 13  1  0  0  0  0
  5  6  4  0  0  0  0
  5 11  4  0  0  0  0
  6  7  4  0  0  0  0
  7  8  4  0  0  0  0
  8  9  1  0  0  0  0
  8 10  4  0  0  0  0
 10 11  4  0  0  0  0
 11 12  1  0  0  0  0
 13 14  2  0  0  0  0
 13 15  1  0  0  0  0
 15 16  2  0  0  0  0
 16 17  1  0  0  0  0
 17 18  4  0  0  0  0
 17 22  4  0  0  0  0
 18 19  4  0  0  0  0
 19 20  4  0  0  0  0
 20 21  4  0  0  0  0
 21 22  4  0  0  0  0
 22 23  1  0  0  0  0
 23 24  1  0  0  0  0
 23 28  1  0  0  0  0
 24 25  1  0  0  0  0
 25 26  1  0  0  0  0
 26 27  1  0  0  0  0
 27 28  1  0  0  0  0
M  END
>  <Name_Molregno>
572589

>  <5-HT1A>
8.4

>  <Dopamine transporter>
5.87

>  <Norepinephrine transporter>
6.19

>  <Serotonin transporter>
7.01

$$$$
572590
  Marvin  02231216192D 0   1.00000     0.00000     0

 20 22  0  0  0  0  0  0  0  0999 V2000
    1.3051    0.5925    0.0000 O   0  0  0  0  0  0  0  0  0
    2.0196    0.1800    0.0000 C   0  0  0  0  0  0  0  0  0
    2.0196   -0.6450    0.0000 C   0  0  0  0  0  0  0  0  0
    2.7340   -1.0575    0.0000 C   0  0  0  0  0  0  0  0  0
    2.7340   -1.8825    0.0000 C   0  0  0  0  0  0  0  0  0
    2.0196   -2.2950    0.0000 C   0  0  0  0  0  0  0  0  0
    1.3051   -1.8825    0.0000 C   0  0  0  0  0  0  0  0  0
    1.3051   -1.0575    0.0000 C   0  0  0  0  0  0  0  0  0
    0.5906   -0.6450    0.0000 N   0  0  0  0  0  0  0  0  0
   -0.1239   -1.0575    0.0000 C   0  0  0  0  0  0  0  0  0
   -0.8383   -0.6450    0.0000 C   0  0  0  0  0  0  0  0  0
   -0.8383    0.1800    0.0000 N   0  0  0  0  0  0  0  0  0
   -0.1239    0.5925    0.0000 C   0  0  0  0  0  0  0  0  0
    0.5906    0.1800    0.0000 C   0  0  0  0  0  0  0  0  0
    1.3051    1.4175    0.0000 C   0  0  0  0  0  0  0  0  0
    0.5906    1.8300    0.0000 C   0  0  0  0  0  0  0  0  0
    0.5906    2.6550    0.0000 C   0  0  0  0  0  0  0  0  0
    1.3051    3.0675    0.0000 C   0  0  0  0  0  0  0  0  0
    2.0196    2.6550    0.0000 C   0  0  0  0  0  0  0  0  0
    2.0196    1.8300    0.0000 C   0  0  0  0  0  0  0  0  0
  1  2  1  0  0  0  0
  1 15  1  0  0  0  0
  2  3  1  0  0  0  0
  3  4  4  0  0  0  0
  3  8  4  0  0  0  0
  4  5  4  0  0  0  0
  5  6  4  0  0  0  0
  6  7  4  0  0  0  0
  7  8  4  0  0  0  0
  8  9  1  0  0  0  0
  9 10  1  0  0  0  0
  9 14  1  0  0  0  0
 10 11  1  0  0  0  0
 11 12  1  0  0  0  0
 12 13  1  0  0  0  0
 13 14  1  0  0  0  0
 15 16  4  0  0  0  0
 15 20  4  0  0  0  0
 16 17  4  0  0  0  0
 17 18  4  0  0  0  0
 18 19  4  0  0  0  0
 19 20  4  0  0  0  0
M  END
>  <Name_Molregno>
572590

>  <5-HT1A>
6.72

>  <Dopamine transporter>
6.15

>  <Norepinephrine transporter>
6.74

>  <Serotonin transporter>
6.11

$$$$
572591
  Marvin  02231216192D 0   1.00000     0.00000     0

 21 23  0  0  0  0  0  0  0  0999 V2000
    2.3277    4.1405    0.0000 F   0  0  0  0  0  0  0  0  0
    2.3277    3.3155    0.0000 C   0  0  0  0  0  0  0  0  0
    3.0421    2.9030    0.0000 C   0  0  0  0  0  0  0  0  0
    3.0421    2.0780    0.0000 C   0  0  0  0  0  0  0  0  0
    3.7566    1.6655    0.0000 O   0  0  0  0  0  0  0  0  0
    3.7566    0.8405    0.0000 C   0  0  0  0  0  0  0  0  0
    4.4711    0.4280    0.0000 C   0  0  0  0  0  0  0  0  0
    5.1855    0.8405    0.0000 C   0  0  0  0  0  0  0  0  0
    5.9000    0.4280    0.0000 C   0  0  0  0  0  0  0  0  0
    5.9000   -0.3970    0.0000 C   0  0  0  0  0  0  0  0  0
    5.1855   -0.8095    0.0000 C   0  0  0  0  0  0  0  0  0
    4.4711   -0.3970    0.0000 C   0  0  0  0  0  0  0  0  0
    3.7566   -0.8095    0.0000 N   0  0  0  0  0  0  0  0  0
    3.7566   -1.6345    0.0000 C   0  0  0  0  0  0  0  0  0
    3.0421   -2.0470    0.0000 C   0  0  0  0  0  0  0  0  0
    2.3277   -1.6345    0.0000 N   0  0  0  0  0  0  0  0  0
    2.3277   -0.8095    0.0000 C   0  0  0  0  0  0  0  0  0
    3.0421   -0.3970    0.0000 C   0  0  0  0  0  0  0  0  0
    2.3277    1.6655    0.0000 C   0  0  0  0  0  0  0  0  0
    1.6132    2.0780    0.0000 C   0  0  0  0  0  0  0  0  0
    1.6132    2.9030    0.0000 C   0  0  0  0  0  0  0  0  0
  1  2  1  0  0  0  0
  2  3  4  0  0  0  0
  2 21  4  0  0  0  0
  3  4  4  0  0  0  0
  4  5  1  0  0  0  0
  4 19  4  0  0  0  0
  5  6  1  0  0  0  0
  6  7  1  0  0  0  0
  7  8  4  0  0  0  0
  7 12  4  0  0  0  0
  8  9  4  0  0  0  0
  9 10  4  0  0  0  0
 10 11  4  0  0  0  0
 11 12  4  0  0  0  0
 12 13  1  0  0  0  0
 13 14  1  0  0  0  0
 13 18  1  0  0  0  0
 14 15  1  0  0  0  0
 15 16  1  0  0  0  0
 16 17  1  0  0  0  0
 17 18  1  0  0  0  0
 19 20  4  0  0  0  0
 20 21  4  0  0  0  0
M  END
>  <Name_Molregno>
572591

>  <5-HT1A>
6.94

>  <Dopamine transporter>
5.7

>  <Norepinephrine transporter>
6.98

>  <Serotonin transporter>
7.77

$$$$
572635
  Marvin  02231216192D 0   1.00000     0.00000     0

 22 24  0  0  0  0  0  0  0  0999 V2000
    0.8228    0.4907    0.0000 F   0  0  0  0  0  0  0  0  0
    0.8228   -0.3343    0.0000 C   0  0  0  0  0  0  0  0  0
    1.5373   -0.7468    0.0000 C   0  0  0  0  0  0  0  0  0
    2.2517   -0.3343    0.0000 O   0  0  0  0  0  0  0  0  0
    2.2517    0.4907    0.0000 C   0  0  0  0  0  0  0  0  0
    2.9662    0.9032    0.0000 C   0  0  0  0  0  0  0  0  0
    2.9662    1.7282    0.0000 C   0  0  0  0  0  0  0  0  0
    3.6807    2.1407    0.0000 C   0  0  0  0  0  0  0  0  0
    4.3951    1.7282    0.0000 C   0  0  0  0  0  0  0  0  0
    4.3951    0.9032    0.0000 C   0  0  0  0  0  0  0  0  0
    3.6807    0.4907    0.0000 C   0  0  0  0  0  0  0  0  0
    3.6807   -0.3343    0.0000 N   0  0  0  0  0  0  0  0  0
    4.3951   -0.7468    0.0000 C   0  0  0  0  0  0  0  0  0
    4.3951   -1.5718    0.0000 C   0  0  0  0  0  0  0  0  0
    3.6807   -1.9843    0.0000 N   0  0  0  0  0  0  0  0  0
    2.9662   -1.5718    0.0000 C   0  0  0  0  0  0  0  0  0
    2.9662   -0.7468    0.0000 C   0  0  0  0  0  0  0  0  0
    1.5373   -1.5718    0.0000 C   0  0  0  0  0  0  0  0  0
    0.8228   -1.9843    0.0000 C   0  0  0  0  0  0  0  0  0
    0.1083   -1.5718    0.0000 C   0  0  0  0  0  0  0  0  0
    0.1083   -0.7468    0.0000 C   0  0  0  0  0  0  0  0  0
   -0.6062   -0.3343    0.0000 F   0  0  0  0  0  0  0  0  0
  1  2  1  0  0  0  0
  2  3  4  0  0  0  0
  2 21  4  0  0  0  0
  3  4  1  0  0  0  0
  3 18  4  0  0  0  0
  4  5  1  0  0  0  0
  5  6  1  0  0  0  0
  6  7  4  0  0  0  0
  6 11  4  0  0  0  0
  7  8  4  0  0  0  0
  8  9  4  0  0  0  0
  9 10  4  0  0  0  0
 10 11  4  0  0  0  0
 11 12  1  0  0  0  0
 12 13  1  0  0  0  0
 12 17  1  0  0  0  0
 13 14  1  0  0  0  0
 14 15  1  0  0  0  0
 15 16  1  0  0  0  0
 16 17  1  0  0  0  0
 18 19  4  0  0  0  0
 19 20  4  0  0  0  0
 20 21  4  0  0  0  0
 21 22  1  0  0  0  0
M  END
>  <Name_Molregno>
572635

>  <5-HT1A>
7

>  <Dopamine transporter>
6.33

>  <Norepinephrine transporter>
7.1

>  <Serotonin transporter>
6.11

$$$$
572641
  Marvin  02231216192D 0   1.00000     0.00000     0

 23 26  0  0  0  0  0  0  0  0999 V2000
    0.9256    0.0809    0.0000 O   0  0  0  0  0  0  0  0  0
    0.9256   -0.7441    0.0000 C   0  0  0  0  0  0  0  0  0
    0.2111   -1.1566    0.0000 C   0  0  0  0  0  0  0  0  0
    0.2111   -1.9816    0.0000 C   0  0  0  0  0  0  0  0  0
   -0.5034   -2.3941    0.0000 C   0  0  0  0  0  0  0  0  0
   -1.2179   -1.9816    0.0000 C   0  0  0  0  0  0  0  0  0
   -1.2179   -1.1566    0.0000 C   0  0  0  0  0  0  0  0  0
   -0.5034   -0.7441    0.0000 C   0  0  0  0  0  0  0  0  0
   -0.5034    0.0809    0.0000 N   0  0  0  0  0  0  0  0  0
   -1.2179    0.4934    0.0000 C   0  0  0  0  0  0  0  0  0
   -1.2179    1.3184    0.0000 C   0  0  0  0  0  0  0  0  0
   -0.5034    1.7309    0.0000 N   0  0  0  0  0  0  0  0  0
    0.2111    1.3184    0.0000 C   0  0  0  0  0  0  0  0  0
    0.2111    0.4934    0.0000 C   0  0  0  0  0  0  0  0  0
    1.6400    0.4934    0.0000 C   0  0  0  0  0  0  0  0  0
    1.6400    1.3184    0.0000 C   0  0  0  0  0  0  0  0  0
    2.3545    1.7309    0.0000 C   0  0  0  0  0  0  0  0  0
    3.0690    1.3184    0.0000 C   0  0  0  0  0  0  0  0  0
    3.0690    0.4934    0.0000 C   0  0  0  0  0  0  0  0  0
    2.3545    0.0809    0.0000 C   0  0  0  0  0  0  0  0  0
    2.3545   -0.7441    0.0000 C   0  0  0  0  0  0  0  0  0
    2.7670   -1.4585    0.0000 C   0  0  0  0  0  0  0  0  0
    1.9420   -1.4585    0.0000 C   0  0  0  0  0  0  0  0  0
  1  2  1  0  0  0  0
  1 15  1  0  0  0  0
  2  3  1  0  0  0  0
  3  4  4  0  0  0  0
  3  8  4  0  0  0  0
  4  5  4  0  0  0  0
  5  6  4  0  0  0  0
  6  7  4  0  0  0  0
  7  8  4  0  0  0  0
  8  9  1  0  0  0  0
  9 10  1  0  0  0  0
  9 14  1  0  0  0  0
 10 11  1  0  0  0  0
 11 12  1  0  0  0  0
 12 13  1  0  0  0  0
 13 14  1  0  0  0  0
 15 16  4  0  0  0  0
 15 20  4  0  0  0  0
 16 17  4  0  0  0  0
 17 18  4  0  0  0  0
 18 19  4  0  0  0  0
 19 20  4  0  0  0  0
 20 21  1  0  0  0  0
 21 22  1  0  0  0  0
 21 23  1  0  0  0  0
 22 23  1  0  0  0  0
M  END
>  <Name_Molregno>
572641

>  <5-HT1A>
6.33

>  <Dopamine transporter>
5.22

>  <Norepinephrine transporter>
6.72

>  <Serotonin transporter>
7.28

$$$$
572642
  Marvin  02231216192D 0   1.00000     0.00000     0

 20 22  0  0  0  0  0  0  0  0999 V2000
    0.8600    0.8106    0.0000 Cl  0  0  0  0  0  0  0  0  0
    0.8600   -0.0144    0.0000 C   0  0  0  0  0  0  0  0  0
    1.5745   -0.4269    0.0000 C   0  0  0  0  0  0  0  0  0
    1.5745   -1.2519    0.0000 C   0  0  0  0  0  0  0  0  0
    2.2889   -1.6644    0.0000 O   0  0  0  0  0  0  0  0  0
    3.0034   -1.2519    0.0000 C   0  0  0  0  0  0  0  0  0
    3.0034   -0.4269    0.0000 C   0  0  0  0  0  0  0  0  0
    3.7179   -0.0144    0.0000 C   0  0  0  0  0  0  0  0  0
    4.4323   -0.4269    0.0000 C   0  0  0  0  0  0  0  0  0
    4.4323   -1.2519    0.0000 C   0  0  0  0  0  0  0  0  0
    3.7179   -1.6644    0.0000 C   0  0  0  0  0  0  0  0  0
    3.7179   -2.4894    0.0000 C   0  0  0  0  0  0  0  0  0
    4.4323   -2.9019    0.0000 C   0  0  0  0  0  0  0  0  0
    4.4323   -3.7269    0.0000 C   0  0  0  0  0  0  0  0  0
    3.7179   -4.1394    0.0000 N   0  0  0  0  0  0  0  0  0
    3.0034   -3.7269    0.0000 C   0  0  0  0  0  0  0  0  0
    3.0034   -2.9019    0.0000 C   0  0  0  0  0  0  0  0  0
    0.8600   -1.6644    0.0000 C   0  0  0  0  0  0  0  0  0
    0.1455   -1.2519    0.0000 C   0  0  0  0  0  0  0  0  0
    0.1455   -0.4269    0.0000 C   0  0  0  0  0  0  0  0  0
  1  2  1  0  0  0  0
  2  3  4  0  0  0  0
  2 20  4  0  0  0  0
  3  4  4  0  0  0  0
  4  5  1  0  0  0  0
  4 18  4  0  0  0  0
  5  6  1  0  0  0  0
  6  7  4  0  0  0  0
  6 11  4  0  0  0  0
  7  8  4  0  0  0  0
  8  9  4  0  0  0  0
  9 10  4  0  0  0  0
 10 11  4  0  0  0  0
 11 12  1  0  0  0  0
 12 13  1  0  0  0  0
 12 17  1  0  0  0  0
 13 14  1  0  0  0  0
 14 15  1  0  0  0  0
 15 16  1  0  0  0  0
 16 17  1  0  0  0  0
 18 19  4  0  0  0  0
 19 20  4  0  0  0  0
M  END
>  <Name_Molregno>
572642

>  <5-HT1A>
8.3

>  <Dopamine transporter>
6.51

>  <Norepinephrine transporter>
7.89

>  <Serotonin transporter>
6.68

$$$$
572652
  Marvin  02231216192D 0   1.00000     0.00000     0

 21 23  0  0  0  0  0  0  0  0999 V2000
    3.0645    3.8362    0.0000 F   0  0  0  0  0  0  0  0  0
    3.0645    3.0112    0.0000 C   0  0  0  0  0  0  0  0  0
    3.7790    2.5987    0.0000 C   0  0  0  0  0  0  0  0  0
    3.7790    1.7737    0.0000 C   0  0  0  0  0  0  0  0  0
    3.0645    1.3612    0.0000 C   0  0  0  0  0  0  0  0  0
    3.0645    0.5362    0.0000 O   0  0  0  0  0  0  0  0  0
    3.7790    0.1237    0.0000 C   0  0  0  0  0  0  0  0  0
    4.4935    0.5362    0.0000 C   0  0  0  0  0  0  0  0  0
    5.2080    0.1237    0.0000 C   0  0  0  0  0  0  0  0  0
    5.2080   -0.7013    0.0000 C   0  0  0  0  0  0  0  0  0
    4.4935   -1.1138    0.0000 C   0  0  0  0  0  0  0  0  0
    3.7790   -0.7013    0.0000 C   0  0  0  0  0  0  0  0  0
    3.0645   -1.1138    0.0000 C   0  0  0  0  0  0  0  0  0
    3.0645   -1.9388    0.0000 C   0  0  0  0  0  0  0  0  0
    2.3501   -2.3513    0.0000 C   0  0  0  0  0  0  0  0  0
    1.6356   -1.9388    0.0000 N   0  0  0  0  0  0  0  0  0
    1.6356   -1.1138    0.0000 C   0  0  0  0  0  0  0  0  0
    2.3501   -0.7013    0.0000 C   0  0  0  0  0  0  0  0  0
    5.9224    0.5362    0.0000 C   0  0  0  0  0  0  0  0  0
    2.3501    1.7737    0.0000 C   0  0  0  0  0  0  0  0  0
    2.3501    2.5987    0.0000 C   0  0  0  0  0  0  0  0  0
  1  2  1  0  0  0  0
  2  3  4  0  0  0  0
  2 21  4  0  0  0  0
  3  4  4  0  0  0  0
  4  5  4  0  0  0  0
  5  6  1  0  0  0  0
  5 20  4  0  0  0  0
  6  7  1  0  0  0  0
  7  8  4  0  0  0  0
  7 12  4  0  0  0  0
  8  9  4  0  0  0  0
  9 10  4  0  0  0  0
  9 19  1  0  0  0  0
 10 11  4  0  0  0  0
 11 12  4  0  0  0  0
 12 13  1  0  0  0  0
 13 14  1  0  0  0  0
 13 18  1  0  0  0  0
 14 15  1  0  0  0  0
 15 16  1  0  0  0  0
 16 17  1  0  0  0  0
 17 18  1  0  0  0  0
 20 21  4  0  0  0  0
M  END
>  <Name_Molregno>
572652

>  <5-HT1A>
5.34

>  <Dopamine transporter>
5.77

>  <Norepinephrine transporter>
6.94

>  <Serotonin transporter>
6.37

$$$$
572662
  Marvin  02231216192D 0   1.00000     0.00000     0

 20 22  0  0  0  0  0  0  0  0999 V2000
    1.3051    0.5925    0.0000 O   0  0  0  0  0  0  0  0  0
    2.0196    0.1800    0.0000 C   0  0  0  0  0  0  0  0  0
    2.0196   -0.6450    0.0000 C   0  0  0  0  0  0  0  0  0
    2.7340   -1.0575    0.0000 C   0  0  0  0  0  0  0  0  0
    2.7340   -1.8825    0.0000 C   0  0  0  0  0  0  0  0  0
    2.0196   -2.2950    0.0000 C   0  0  0  0  0  0  0  0  0
    1.3051   -1.8825    0.0000 C   0  0  0  0  0  0  0  0  0
    1.3051   -1.0575    0.0000 C   0  0  0  0  0  0  0  0  0
    0.5906   -0.6450    0.0000 C   0  0  0  0  0  0  0  0  0
   -0.1239   -1.0575    0.0000 C   0  0  0  0  0  0  0  0  0
   -0.8383   -0.6450    0.0000 C   0  0  0  0  0  0  0  0  0
   -0.8383    0.1800    0.0000 N   0  0  0  0  0  0  0  0  0
   -0.1239    0.5925    0.0000 C   0  0  0  0  0  0  0  0  0
    0.5906    0.1800    0.0000 C   0  0  0  0  0  0  0  0  0
    1.3051    1.4175    0.0000 C   0  0  0  0  0  0  0  0  0
    0.5906    1.8300    0.0000 C   0  0  0  0  0  0  0  0  0
    0.5906    2.6550    0.0000 C   0  0  0  0  0  0  0  0  0
    1.3051    3.0675    0.0000 C   0  0  0  0  0  0  0  0  0
    2.0196    2.6550    0.0000 C   0  0  0  0  0  0  0  0  0
    2.0196    1.8300    0.0000 C   0  0  0  0  0  0  0  0  0
  1  2  1  0  0  0  0
  1 15  1  0  0  0  0
  2  3  1  0  0  0  0
  3  4  4  0  0  0  0
  3  8  4  0  0  0  0
  4  5  4  0  0  0  0
  5  6  4  0  0  0  0
  6  7  4  0  0  0  0
  7  8  4  0  0  0  0
  8  9  1  0  0  0  0
  9 10  1  0  0  0  0
  9 14  1  0  0  0  0
 10 11  1  0  0  0  0
 11 12  1  0  0  0  0
 12 13  1  0  0  0  0
 13 14  1  0  0  0  0
 15 16  4  0  0  0  0
 15 20  4  0  0  0  0
 16 17  4  0  0  0  0
 17 18  4  0  0  0  0
 18 19  4  0  0  0  0
 19 20  4  0  0  0  0
M  END
>  <Name_Molregno>
572662

>  <5-HT1A>
6

>  <Dopamine transporter>
6.4

>  <Norepinephrine transporter>
5.77

>  <Serotonin transporter>
6.44

$$$$
572663
  Marvin  02231216192D 0   1.00000     0.00000     0

 21 23  0  0  0  0  0  0  0  0999 V2000
    2.3277    4.1405    0.0000 F   0  0  0  0  0  0  0  0  0
    2.3277    3.3155    0.0000 C   0  0  0  0  0  0  0  0  0
    3.0421    2.9030    0.0000 C   0  0  0  0  0  0  0  0  0
    3.0421    2.0780    0.0000 C   0  0  0  0  0  0  0  0  0
    3.7566    1.6655    0.0000 O   0  0  0  0  0  0  0  0  0
    3.7566    0.8405    0.0000 C   0  0  0  0  0  0  0  0  0
    4.4711    0.4280    0.0000 C   0  0  0  0  0  0  0  0  0
    5.1855    0.8405    0.0000 C   0  0  0  0  0  0  0  0  0
    5.9000    0.4280    0.0000 C   0  0  0  0  0  0  0  0  0
    5.9000   -0.3970    0.0000 C   0  0  0  0  0  0  0  0  0
    5.1855   -0.8095    0.0000 C   0  0  0  0  0  0  0  0  0
    4.4711   -0.3970    0.0000 C   0  0  0  0  0  0  0  0  0
    3.7566   -0.8095    0.0000 C   0  0  0  0  0  0  0  0  0
    3.7566   -1.6345    0.0000 C   0  0  0  0  0  0  0  0  0
    3.0421   -2.0470    0.0000 C   0  0  0  0  0  0  0  0  0
    2.3277   -1.6345    0.0000 N   0  0  0  0  0  0  0  0  0
    2.3277   -0.8095    0.0000 C   0  0  0  0  0  0  0  0  0
    3.0421   -0.3970    0.0000 C   0  0  0  0  0  0  0  0  0
    2.3277    1.6655    0.0000 C   0  0  0  0  0  0  0  0  0
    1.6132    2.0780    0.0000 C   0  0  0  0  0  0  0  0  0
    1.6132    2.9030    0.0000 C   0  0  0  0  0  0  0  0  0
  1  2  1  0  0  0  0
  2  3  4  0  0  0  0
  2 21  4  0  0  0  0
  3  4  4  0  0  0  0
  4  5  1  0  0  0  0
  4 19  4  0  0  0  0
  5  6  1  0  0  0  0
  6  7  1  0  0  0  0
  7  8  4  0  0  0  0
  7 12  4  0  0  0  0
  8  9  4  0  0  0  0
  9 10  4  0  0  0  0
 10 11  4  0  0  0  0
 11 12  4  0  0  0  0
 12 13  1  0  0  0  0
 13 14  1  0  0  0  0
 13 18  1  0  0  0  0
 14 15  1  0  0  0  0
 15 16  1  0  0  0  0
 16 17  1  0  0  0  0
 17 18  1  0  0  0  0
 19 20  4  0  0  0  0
 20 21  4  0  0  0  0
M  END
>  <Name_Molregno>
572663

>  <5-HT1A>
6

>  <Dopamine transporter>
6.34

>  <Norepinephrine transporter>
5.71

>  <Serotonin transporter>
7.31

$$$$
572664
  Marvin  02231216192D 0   1.00000     0.00000     0

 20 22  0  0  0  0  0  0  0  0999 V2000
   -0.7159    0.2271    0.0000 O   0  0  0  0  0  0  0  0  0
   -1.4304   -0.1854    0.0000 C   0  0  0  0  0  0  0  0  0
   -1.4304   -1.0104    0.0000 C   0  0  0  0  0  0  0  0  0
   -0.7159   -1.4229    0.0000 C   0  0  0  0  0  0  0  0  0
   -0.7159   -2.2479    0.0000 C   0  0  0  0  0  0  0  0  0
   -1.4304   -2.6604    0.0000 C   0  0  0  0  0  0  0  0  0
   -2.1449   -2.2479    0.0000 C   0  0  0  0  0  0  0  0  0
   -2.1449   -1.4229    0.0000 C   0  0  0  0  0  0  0  0  0
   -0.7159    1.0521    0.0000 C   0  0  0  0  0  0  0  0  0
   -1.4304    1.4646    0.0000 C   0  0  0  0  0  0  0  0  0
   -1.4304    2.2896    0.0000 C   0  0  0  0  0  0  0  0  0
   -0.7159    2.7021    0.0000 C   0  0  0  0  0  0  0  0  0
   -0.0014    2.2896    0.0000 C   0  0  0  0  0  0  0  0  0
   -0.0014    1.4646    0.0000 C   0  0  0  0  0  0  0  0  0
    0.7130    1.0521    0.0000 C   0  0  0  0  0  0  0  0  0
    1.4275    1.4646    0.0000 C   0  0  0  0  0  0  0  0  0
    2.1420    1.0521    0.0000 C   0  0  0  0  0  0  0  0  0
    2.1420    0.2271    0.0000 N   0  0  0  0  0  0  0  0  0
    1.4275   -0.1854    0.0000 C   0  0  0  0  0  0  0  0  0
    0.7130    0.2271    0.0000 C   0  0  0  0  0  0  0  0  0
  1  2  1  0  0  0  0
  1  9  1  0  0  0  0
  2  3  1  0  0  0  0
  3  4  4  0  0  0  0
  3  8  4  0  0  0  0
  4  5  4  0  0  0  0
  5  6  4  0  0  0  0
  6  7  4  0  0  0  0
  7  8  4  0  0  0  0
  9 10  4  0  0  0  0
  9 14  4  0  0  0  0
 10 11  4  0  0  0  0
 11 12  4  0  0  0  0
 12 13  4  0  0  0  0
 13 14  4  0  0  0  0
 14 15  1  0  0  0  0
 15 16  1  0  0  0  0
 15 20  1  0  0  0  0
 16 17  1  0  0  0  0
 17 18  1  0  0  0  0
 18 19  1  0  0  0  0
 19 20  1  0  0  0  0
M  END
>  <Name_Molregno>
572664

>  <5-HT1A>
6.92

>  <Dopamine transporter>
6

>  <Norepinephrine transporter>
7.12

>  <Serotonin transporter>
7.13

$$$$
572672
  Marvin  02231216192D 0   1.00000     0.00000     0

 21 23  0  0  0  0  0  0  0  0999 V2000
    3.2606    3.2887    0.0000 F   0  0  0  0  0  0  0  0  0
    3.2606    2.4637    0.0000 C   0  0  0  0  0  0  0  0  0
    3.9751    2.0512    0.0000 C   0  0  0  0  0  0  0  0  0
    3.9751    1.2262    0.0000 C   0  0  0  0  0  0  0  0  0
    3.2606    0.8137    0.0000 C   0  0  0  0  0  0  0  0  0
    2.5462    1.2262    0.0000 C   0  0  0  0  0  0  0  0  0
    1.8317    0.8137    0.0000 O   0  0  0  0  0  0  0  0  0
    1.8317   -0.0113    0.0000 C   0  0  0  0  0  0  0  0  0
    2.5462   -0.4238    0.0000 C   0  0  0  0  0  0  0  0  0
    2.5462   -1.2488    0.0000 C   0  0  0  0  0  0  0  0  0
    1.8317   -1.6613    0.0000 C   0  0  0  0  0  0  0  0  0
    1.8317   -2.4863    0.0000 F   0  0  0  0  0  0  0  0  0
    1.1172   -1.2488    0.0000 C   0  0  0  0  0  0  0  0  0
    1.1172   -0.4238    0.0000 C   0  0  0  0  0  0  0  0  0
    2.5462    2.0512    0.0000 C   0  0  0  0  0  0  0  0  0
    1.8317    2.4637    0.0000 C   0  0  0  0  0  0  0  0  0
    1.1172    2.0512    0.0000 C   0  0  0  0  0  0  0  0  0
    0.4028    2.4637    0.0000 C   0  0  0  0  0  0  0  0  0
    0.4028    3.2887    0.0000 N   0  0  0  0  0  0  0  0  0
    1.1172    3.7012    0.0000 C   0  0  0  0  0  0  0  0  0
    1.8317    3.2887    0.0000 C   0  0  0  0  0  0  0  0  0
  1  2  1  0  0  0  0
  2  3  4  0  0  0  0
  2 15  4  0  0  0  0
  3  4  4  0  0  0  0
  4  5  4  0  0  0  0
  5  6  4  0  0  0  0
  6  7  1  0  0  0  0
  6 15  4  0  0  0  0
  7  8  1  0  0  0  0
  8  9  4  0  0  0  0
  8 14  4  0  0  0  0
  9 10  4  0  0  0  0
 10 11  4  0  0  0  0
 11 12  1  0  0  0  0
 11 13  4  0  0  0  0
 13 14  4  0  0  0  0
 15 16  1  0  0  0  0
 16 17  1  0  0  0  0
 16 21  1  0  0  0  0
 17 18  1  0  0  0  0
 18 19  1  0  0  0  0
 19 20  1  0  0  0  0
 20 21  1  0  0  0  0
M  END
>  <Name_Molregno>
572672

>  <5-HT1A>
6.81

>  <Dopamine transporter>
8.22

>  <Norepinephrine transporter>
7.01

>  <Serotonin transporter>
6.8

$$$$
582926
  Marvin  02231216192D 0   1.00000     0.00000     0

 17 17  0  0  1  0  0  0  0  0999 V2000
    1.2746    2.3116    0.0000 F   0  0  0  0  0  0  0  0  0
    1.2746    1.4866    0.0000 C   0  0  0  0  0  0  0  0  0
    1.9891    1.0741    0.0000 C   0  0  0  0  0  0  0  0  0
    1.9891    0.2491    0.0000 C   0  0  0  0  0  0  0  0  0
    1.2746   -0.1634    0.0000 C   0  0  0  0  0  0  0  0  0
    0.5601    0.2491    0.0000 C   0  0  0  0  0  0  0  0  0
    0.5601    1.0741    0.0000 C   0  0  0  0  0  0  0  0  0
   -0.1543    1.4866    0.0000 F   0  0  0  0  0  0  0  0  0
    2.7036   -0.1634    0.0000 C   0  0  0  0  0  0  0  0  0
    2.7036   -0.9884    0.0000 O   0  0  0  0  0  0  0  0  0
    3.4180    0.2491    0.0000 C   0  0  0  0  0  0  0  0  0
    4.1325   -0.1634    0.0000 N   0  0  0  0  0  0  0  0  0
    4.8470    0.2491    0.0000 C   0  0  0  0  0  0  0  0  0
    5.5614    0.6616    0.0000 C   0  0  0  0  0  0  0  0  0
    5.2595   -0.4653    0.0000 C   0  0  0  0  0  0  0  0  0
    4.4345    0.9636    0.0000 C   0  0  0  0  0  0  0  0  0
    3.4180    1.0741    0.0000 C   0  0  0  0  0  0  0  0  0
  1  2  1  0  0  0  0
  2  3  4  0  0  0  0
  2  7  4  0  0  0  0
  3  4  4  0  0  0  0
  4  5  4  0  0  0  0
  4  9  1  0  0  0  0
  5  6  4  0  0  0  0
  6  7  4  0  0  0  0
  7  8  1  0  0  0  0
  9 10  2  0  0  0  0
  9 11  1  0  0  0  0
 11 12  1  0  0  0  0
 11 17  1  0  0  0  0
 12 13  1  0  0  0  0
 13 14  1  0  0  0  0
 13 15  1  0  0  0  0
 13 16  1  0  0  0  0
M  END
>  <Name_Molregno>
582926

>  <Dopamine transporter>
5

>  <Norepinephrine transporter>
5

>  <Serotonin transporter>
5

$$$$
582927
  Marvin  02231216192D 0   1.00000     0.00000     0

 17 17  0  0  1  0  0  0  0  0999 V2000
    1.2746    2.3116    0.0000 Cl  0  0  0  0  0  0  0  0  0
    1.2746    1.4866    0.0000 C   0  0  0  0  0  0  0  0  0
    1.9891    1.0741    0.0000 C   0  0  0  0  0  0  0  0  0
    1.9891    0.2491    0.0000 C   0  0  0  0  0  0  0  0  0
    1.2746   -0.1634    0.0000 C   0  0  0  0  0  0  0  0  0
    0.5601    0.2491    0.0000 C   0  0  0  0  0  0  0  0  0
    0.5601    1.0741    0.0000 C   0  0  0  0  0  0  0  0  0
   -0.1543    1.4866    0.0000 Cl  0  0  0  0  0  0  0  0  0
    2.7036   -0.1634    0.0000 C   0  0  0  0  0  0  0  0  0
    2.7036   -0.9884    0.0000 O   0  0  0  0  0  0  0  0  0
    3.4180    0.2491    0.0000 C   0  0  0  0  0  0  0  0  0
    4.1325   -0.1634    0.0000 N   0  0  0  0  0  0  0  0  0
    4.8470    0.2491    0.0000 C   0  0  0  0  0  0  0  0  0
    5.5614    0.6616    0.0000 C   0  0  0  0  0  0  0  0  0
    5.2595   -0.4653    0.0000 C   0  0  0  0  0  0  0  0  0
    4.4345    0.9636    0.0000 C   0  0  0  0  0  0  0  0  0
    3.4180    1.0741    0.0000 C   0  0  0  0  0  0  0  0  0
  1  2  1  0  0  0  0
  2  3  4  0  0  0  0
  2  7  4  0  0  0  0
  3  4  4  0  0  0  0
  4  5  4  0  0  0  0
  4  9  1  0  0  0  0
  5  6  4  0  0  0  0
  6  7  4  0  0  0  0
  7  8  1  0  0  0  0
  9 10  2  0  0  0  0
  9 11  1  0  0  0  0
 11 12  1  0  0  0  0
 11 17  1  0  0  0  0
 12 13  1  0  0  0  0
 13 14  1  0  0  0  0
 13 15  1  0  0  0  0
 13 16  1  0  0  0  0
M  END
>  <Name_Molregno>
582927

>  <Dopamine transporter>
6.33

>  <Norepinephrine transporter>
5.27

>  <Serotonin transporter>
5.83

$$$$
582937
  Marvin  02231216192D 0   1.00000     0.00000     0

 17 17  0  0  1  0  0  0  0  0999 V2000
    1.2746    2.3116    0.0000 Cl  0  0  0  0  0  0  0  0  0
    1.2746    1.4866    0.0000 C   0  0  0  0  0  0  0  0  0
    1.9891    1.0741    0.0000 C   0  0  0  0  0  0  0  0  0
    1.9891    0.2491    0.0000 C   0  0  0  0  0  0  0  0  0
    1.2746   -0.1634    0.0000 C   0  0  0  0  0  0  0  0  0
    0.5601    0.2491    0.0000 C   0  0  0  0  0  0  0  0  0
    0.5601    1.0741    0.0000 C   0  0  0  0  0  0  0  0  0
   -0.1543    1.4866    0.0000 C   0  0  0  0  0  0  0  0  0
    2.7036   -0.1634    0.0000 C   0  0  0  0  0  0  0  0  0
    2.7036   -0.9884    0.0000 O   0  0  0  0  0  0  0  0  0
    3.4180    0.2491    0.0000 C   0  0  0  0  0  0  0  0  0
    4.1325   -0.1634    0.0000 N   0  0  0  0  0  0  0  0  0
    4.8470    0.2491    0.0000 C   0  0  0  0  0  0  0  0  0
    5.5614    0.6616    0.0000 C   0  0  0  0  0  0  0  0  0
    5.2595   -0.4653    0.0000 C   0  0  0  0  0  0  0  0  0
    4.4345    0.9636    0.0000 C   0  0  0  0  0  0  0  0  0
    3.4180    1.0741    0.0000 C   0  0  0  0  0  0  0  0  0
  1  2  1  0  0  0  0
  2  3  4  0  0  0  0
  2  7  4  0  0  0  0
  3  4  4  0  0  0  0
  4  5  4  0  0  0  0
  4  9  1  0  0  0  0
  5  6  4  0  0  0  0
  6  7  4  0  0  0  0
  7  8  1  0  0  0  0
  9 10  2  0  0  0  0
  9 11  1  0  0  0  0
 11 12  1  0  0  0  0
 11 17  1  0  0  0  0
 12 13  1  0  0  0  0
 13 14  1  0  0  0  0
 13 15  1  0  0  0  0
 13 16  1  0  0  0  0
M  END
>  <Name_Molregno>
582937

>  <Dopamine transporter>
5.94

>  <Norepinephrine transporter>
5.29

>  <Serotonin transporter>
5.68

$$$$
582938
  Marvin  02231216192D 0   1.00000     0.00000     0

 17 17  0  0  1  0  0  0  0  0999 V2000
    0.1048    0.6861    0.0000 Br  0  0  0  0  0  0  0  0  0
    0.8193    0.2736    0.0000 C   0  0  0  0  0  0  0  0  0
    1.5338    0.6861    0.0000 C   0  0  0  0  0  0  0  0  0
    2.2483    0.2736    0.0000 C   0  0  0  0  0  0  0  0  0
    2.2483   -0.5514    0.0000 C   0  0  0  0  0  0  0  0  0
    1.5338   -0.9639    0.0000 C   0  0  0  0  0  0  0  0  0
    0.8193   -0.5514    0.0000 C   0  0  0  0  0  0  0  0  0
    0.1048   -0.9639    0.0000 C   0  0  0  0  0  0  0  0  0
    2.9627   -0.9639    0.0000 C   0  0  0  0  0  0  0  0  0
    2.9627   -1.7889    0.0000 O   0  0  0  0  0  0  0  0  0
    3.6772   -0.5514    0.0000 C   0  0  0  0  0  0  0  0  0
    4.3917   -0.9639    0.0000 N   0  0  0  0  0  0  0  0  0
    5.1061   -0.5514    0.0000 C   0  0  0  0  0  0  0  0  0
    5.8206   -0.1389    0.0000 C   0  0  0  0  0  0  0  0  0
    5.5186   -1.2659    0.0000 C   0  0  0  0  0  0  0  0  0
    4.6936    0.1631    0.0000 C   0  0  0  0  0  0  0  0  0
    3.6772    0.2736    0.0000 C   0  0  0  0  0  0  0  0  0
  1  2  1  0  0  0  0
  2  3  4  0  0  0  0
  2  7  4  0  0  0  0
  3  4  4  0  0  0  0
  4  5  4  0  0  0  0
  5  6  4  0  0  0  0
  5  9  1  0  0  0  0
  6  7  4  0  0  0  0
  7  8  1  0  0  0  0
  9 10  2  0  0  0  0
  9 11  1  0  0  0  0
 11 12  1  0  0  0  0
 11 17  1  0  0  0  0
 12 13  1  0  0  0  0
 13 14  1  0  0  0  0
 13 15  1  0  0  0  0
 13 16  1  0  0  0  0
M  END
>  <Name_Molregno>
582938

>  <Dopamine transporter>
5.76

>  <Norepinephrine transporter>
5.34

>  <Serotonin transporter>
5.92

$$$$
582939
  Marvin  02231216192D 0   1.00000     0.00000     0

 19 19  0  0  1  0  0  0  0  0999 V2000
    4.7343   -0.1009    0.0000 Cl  0  0  0  0  0  0  0  0  0
    4.3218    0.6136    0.0000 C   0  0  0  0  0  0  0  0  0
    3.4968    0.6136    0.0000 C   0  0  0  0  0  0  0  0  0
    3.0843    1.3280    0.0000 C   0  0  0  0  0  0  0  0  0
    3.4968    2.0425    0.0000 C   0  0  0  0  0  0  0  0  0
    4.3218    2.0425    0.0000 C   0  0  0  0  0  0  0  0  0
    4.7343    1.3280    0.0000 C   0  0  0  0  0  0  0  0  0
    5.5593    1.3280    0.0000 Cl  0  0  0  0  0  0  0  0  0
    2.2593    1.3280    0.0000 C   0  0  0  0  0  0  0  0  0
    1.8468    2.0425    0.0000 O   0  0  0  0  0  0  0  0  0
    1.8468    0.6136    0.0000 C   0  0  0  0  0  0  0  0  0
    1.0218    0.6136    0.0000 N   0  0  0  0  0  0  0  0  0
    0.6093   -0.1009    0.0000 C   0  0  0  0  0  0  0  0  0
    0.1968   -0.8154    0.0000 C   0  0  0  0  0  0  0  0  0
    1.3238   -0.5134    0.0000 C   0  0  0  0  0  0  0  0  0
   -0.1052    0.3116    0.0000 C   0  0  0  0  0  0  0  0  0
    2.2593   -0.1009    0.0000 C   0  0  0  0  0  0  0  0  0
    3.0843   -0.1009    0.0000 C   0  0  0  0  0  0  0  0  0
    3.4968   -0.8154    0.0000 C   0  0  0  0  0  0  0  0  0
  1  2  1  0  0  0  0
  2  3  4  0  0  0  0
  2  7  4  0  0  0  0
  3  4  4  0  0  0  0
  4  5  4  0  0  0  0
  4  9  1  0  0  0  0
  5  6  4  0  0  0  0
  6  7  4  0  0  0  0
  7  8  1  0  0  0  0
  9 10  2  0  0  0  0
  9 11  1  0  0  0  0
 11 12  1  0  0  0  0
 11 17  1  0  0  0  0
 12 13  1  0  0  0  0
 13 14  1  0  0  0  0
 13 15  1  0  0  0  0
 13 16  1  0  0  0  0
 17 18  1  0  0  0  0
 18 19  1  0  0  0  0
M  END
>  <Name_Molregno>
582939

>  <Dopamine transporter>
7.36

>  <Norepinephrine transporter>
6.28

>  <Serotonin transporter>
6.07

$$$$
582949
  Marvin  02231216192D 0   1.00000     0.00000     0

 17 17  0  0  1  0  0  0  0  0999 V2000
    1.3603    2.4384    0.0000 F   0  0  0  0  0  0  0  0  0
    1.3603    1.6134    0.0000 C   0  0  0  0  0  0  0  0  0
    2.0747    1.2009    0.0000 C   0  0  0  0  0  0  0  0  0
    2.0747    0.3759    0.0000 C   0  0  0  0  0  0  0  0  0
    1.3603   -0.0366    0.0000 C   0  0  0  0  0  0  0  0  0
    0.6458    0.3759    0.0000 C   0  0  0  0  0  0  0  0  0
   -0.0687   -0.0366    0.0000 F   0  0  0  0  0  0  0  0  0
    0.6458    1.2009    0.0000 C   0  0  0  0  0  0  0  0  0
    2.7892   -0.0366    0.0000 C   0  0  0  0  0  0  0  0  0
    2.7892   -0.8616    0.0000 O   0  0  0  0  0  0  0  0  0
    3.5037    0.3759    0.0000 C   0  0  0  0  0  0  0  0  0
    4.2181   -0.0366    0.0000 N   0  0  0  0  0  0  0  0  0
    4.9326    0.3759    0.0000 C   0  0  0  0  0  0  0  0  0
    5.6471    0.7884    0.0000 C   0  0  0  0  0  0  0  0  0
    5.3451   -0.3386    0.0000 C   0  0  0  0  0  0  0  0  0
    4.5201    1.0904    0.0000 C   0  0  0  0  0  0  0  0  0
    3.5037    1.2009    0.0000 C   0  0  0  0  0  0  0  0  0
  1  2  1  0  0  0  0
  2  3  4  0  0  0  0
  2  8  4  0  0  0  0
  3  4  4  0  0  0  0
  4  5  4  0  0  0  0
  4  9  1  0  0  0  0
  5  6  4  0  0  0  0
  6  7  1  0  0  0  0
  6  8  4  0  0  0  0
  9 10  2  0  0  0  0
  9 11  1  0  0  0  0
 11 12  1  0  0  0  0
 11 17  1  0  0  0  0
 12 13  1  0  0  0  0
 13 14  1  0  0  0  0
 13 15  1  0  0  0  0
 13 16  1  0  0  0  0
M  END
>  <Name_Molregno>
582949

>  <Dopamine transporter>
5.25

>  <Norepinephrine transporter>
5

>  <Serotonin transporter>
5

$$$$
582950
  Marvin  02231216192D 0   1.00000     0.00000     0

 17 17  0  0  1  0  0  0  0  0999 V2000
    1.3603    2.4384    0.0000 Cl  0  0  0  0  0  0  0  0  0
    1.3603    1.6134    0.0000 C   0  0  0  0  0  0  0  0  0
    2.0747    1.2009    0.0000 C   0  0  0  0  0  0  0  0  0
    2.0747    0.3759    0.0000 C   0  0  0  0  0  0  0  0  0
    1.3603   -0.0366    0.0000 C   0  0  0  0  0  0  0  0  0
    0.6458    0.3759    0.0000 C   0  0  0  0  0  0  0  0  0
   -0.0687   -0.0366    0.0000 Cl  0  0  0  0  0  0  0  0  0
    0.6458    1.2009    0.0000 C   0  0  0  0  0  0  0  0  0
    2.7892   -0.0366    0.0000 C   0  0  0  0  0  0  0  0  0
    2.7892   -0.8616    0.0000 O   0  0  0  0  0  0  0  0  0
    3.5037    0.3759    0.0000 C   0  0  0  0  0  0  0  0  0
    4.2181   -0.0366    0.0000 N   0  0  0  0  0  0  0  0  0
    4.9326    0.3759    0.0000 C   0  0  0  0  0  0  0  0  0
    5.6471    0.7884    0.0000 C   0  0  0  0  0  0  0  0  0
    5.3451   -0.3386    0.0000 C   0  0  0  0  0  0  0  0  0
    4.5201    1.0904    0.0000 C   0  0  0  0  0  0  0  0  0
    3.5037    1.2009    0.0000 C   0  0  0  0  0  0  0  0  0
  1  2  1  0  0  0  0
  2  3  4  0  0  0  0
  2  8  4  0  0  0  0
  3  4  4  0  0  0  0
  4  5  4  0  0  0  0
  4  9  1  0  0  0  0
  5  6  4  0  0  0  0
  6  7  1  0  0  0  0
  6  8  4  0  0  0  0
  9 10  2  0  0  0  0
  9 11  1  0  0  0  0
 11 12  1  0  0  0  0
 11 17  1  0  0  0  0
 12 13  1  0  0  0  0
 13 14  1  0  0  0  0
 13 15  1  0  0  0  0
 13 16  1  0  0  0  0
M  END
>  <Name_Molregno>
582950

>  <Dopamine transporter>
5

>  <Norepinephrine transporter>
5

>  <Serotonin transporter>
5

$$$$
582951
  Marvin  02231216192D 0   1.00000     0.00000     0

 17 17  0  0  1  0  0  0  0  0999 V2000
    5.0937   -0.1618    0.0000 Cl  0  0  0  0  0  0  0  0  0
    4.3792    0.2507    0.0000 C   0  0  0  0  0  0  0  0  0
    3.6648   -0.1618    0.0000 C   0  0  0  0  0  0  0  0  0
    2.9503    0.2507    0.0000 C   0  0  0  0  0  0  0  0  0
    2.9503    1.0757    0.0000 C   0  0  0  0  0  0  0  0  0
    3.6648    1.4882    0.0000 C   0  0  0  0  0  0  0  0  0
    4.3792    1.0757    0.0000 C   0  0  0  0  0  0  0  0  0
    2.2358   -0.1618    0.0000 C   0  0  0  0  0  0  0  0  0
    1.5213    0.2507    0.0000 O   0  0  0  0  0  0  0  0  0
    2.2358   -0.9868    0.0000 C   0  0  0  0  0  0  0  0  0
    1.5213   -1.3993    0.0000 N   0  0  0  0  0  0  0  0  0
    1.5213   -2.2243    0.0000 C   0  0  0  0  0  0  0  0  0
    1.5213   -3.0493    0.0000 C   0  0  0  0  0  0  0  0  0
    0.6963   -2.2243    0.0000 C   0  0  0  0  0  0  0  0  0
    2.3463   -2.2243    0.0000 C   0  0  0  0  0  0  0  0  0
    2.9503   -1.3993    0.0000 C   0  0  0  0  0  0  0  0  0
    2.9503   -2.2243    0.0000 C   0  0  0  0  0  0  0  0  0
  1  2  1  0  0  0  0
  2  3  4  0  0  0  0
  2  7  4  0  0  0  0
  3  4  4  0  0  0  0
  4  5  4  0  0  0  0
  4  8  1  0  0  0  0
  5  6  4  0  0  0  0
  6  7  4  0  0  0  0
  8  9  2  0  0  0  0
  8 10  1  0  0  0  0
 10 11  1  0  0  0  0
 10 16  1  0  0  0  0
 11 12  1  0  0  0  0
 12 13  1  0  0  0  0
 12 14  1  0  0  0  0
 12 15  1  0  0  0  0
 16 17  1  0  0  0  0
M  END
>  <Name_Molregno>
582951

>  <Dopamine transporter>
6.34

>  <Norepinephrine transporter>
5.5

>  <Serotonin transporter>
5

$$$$
582971
  Marvin  02231216192D 0   1.00000     0.00000     0

 17 17  0  0  1  0  0  0  0  0999 V2000
    1.2682    2.3128    0.0000 Cl  0  0  0  0  0  0  0  0  0
    1.2682    1.4878    0.0000 C   0  0  0  0  0  0  0  0  0
    1.9827    1.0753    0.0000 C   0  0  0  0  0  0  0  0  0
    1.9827    0.2503    0.0000 C   0  0  0  0  0  0  0  0  0
    1.2682   -0.1622    0.0000 C   0  0  0  0  0  0  0  0  0
    0.5537    0.2503    0.0000 C   0  0  0  0  0  0  0  0  0
    0.5537    1.0753    0.0000 C   0  0  0  0  0  0  0  0  0
    2.6972   -0.1622    0.0000 C   0  0  0  0  0  0  0  0  0
    2.6972   -0.9872    0.0000 O   0  0  0  0  0  0  0  0  0
    3.4116    0.2503    0.0000 C   0  0  0  0  0  0  0  0  0
    4.1261   -0.1622    0.0000 N   0  0  0  0  0  0  0  0  0
    4.8406    0.2503    0.0000 C   0  0  0  0  0  0  0  0  0
    5.5550    0.6628    0.0000 C   0  0  0  0  0  0  0  0  0
    5.2531   -0.4641    0.0000 C   0  0  0  0  0  0  0  0  0
    4.4281    0.9648    0.0000 C   0  0  0  0  0  0  0  0  0
    4.1261   -0.9872    0.0000 C   0  0  0  0  0  0  0  0  0
    3.4116    1.0753    0.0000 C   0  0  0  0  0  0  0  0  0
  1  2  1  0  0  0  0
  2  3  4  0  0  0  0
  2  7  4  0  0  0  0
  3  4  4  0  0  0  0
  4  5  4  0  0  0  0
  4  8  1  0  0  0  0
  5  6  4  0  0  0  0
  6  7  4  0  0  0  0
  8  9  2  0  0  0  0
  8 10  1  0  0  0  0
 10 11  1  0  0  0  0
 10 17  1  0  0  0  0
 11 12  1  0  0  0  0
 11 16  1  0  0  0  0
 12 13  1  0  0  0  0
 12 14  1  0  0  0  0
 12 15  1  0  0  0  0
M  END
>  <Name_Molregno>
582971

>  <Dopamine transporter>
5.19

>  <Norepinephrine transporter>
5

>  <Serotonin transporter>
5

$$$$
582972
  Marvin  02231216192D 0   1.00000     0.00000     0

 14 14  0  0  1  0  0  0  0  0999 V2000
    1.3629   -2.3542    0.0000 Cl  0  0  0  0  0  0  0  0  0
    2.0774   -1.9417    0.0000 C   0  0  0  0  0  0  0  0  0
    2.0774   -1.1167    0.0000 C   0  0  0  0  0  0  0  0  0
    2.7919   -0.7042    0.0000 C   0  0  0  0  0  0  0  0  0
    3.5063   -1.1167    0.0000 C   0  0  0  0  0  0  0  0  0
    3.5063   -1.9417    0.0000 C   0  0  0  0  0  0  0  0  0
    2.7919   -2.3542    0.0000 C   0  0  0  0  0  0  0  0  0
    2.7919    0.1208    0.0000 C   0  0  0  0  0  0  0  0  0
    3.5063    0.5333    0.0000 O   0  0  0  0  0  0  0  0  0
    2.0774    0.5333    0.0000 C   0  0  0  0  0  0  0  0  0
    2.0774    1.3583    0.0000 N   0  0  0  0  0  0  0  0  0
    1.3629    1.7708    0.0000 C   0  0  0  0  0  0  0  0  0
    2.7919    1.7708    0.0000 C   0  0  0  0  0  0  0  0  0
    1.3629    0.1208    0.0000 C   0  0  0  0  0  0  0  0  0
  1  2  1  0  0  0  0
  2  3  4  0  0  0  0
  2  7  4  0  0  0  0
  3  4  4  0  0  0  0
  4  5  4  0  0  0  0
  4  8  1  0  0  0  0
  5  6  4  0  0  0  0
  6  7  4  0  0  0  0
  8  9  2  0  0  0  0
  8 10  1  0  0  0  0
 10 11  1  0  0  0  0
 10 14  1  0  0  0  0
 11 12  1  0  0  0  0
 11 13  1  0  0  0  0
M  END
>  <Name_Molregno>
582972

>  <Dopamine transporter>
5.38

>  <Norepinephrine transporter>
5.51

>  <Serotonin transporter>
5

$$$$
582976
  Marvin  02231216192D 0   1.00000     0.00000     0

 18 18  0  0  1  0  0  0  0  0999 V2000
    5.0354   -1.2681    0.0000 Cl  0  0  0  0  0  0  0  0  0
    4.6229   -0.5536    0.0000 C   0  0  0  0  0  0  0  0  0
    3.7979   -0.5536    0.0000 C   0  0  0  0  0  0  0  0  0
    3.3854    0.1608    0.0000 C   0  0  0  0  0  0  0  0  0
    3.7979    0.8753    0.0000 C   0  0  0  0  0  0  0  0  0
    4.6229    0.8753    0.0000 C   0  0  0  0  0  0  0  0  0
    5.0354    0.1608    0.0000 C   0  0  0  0  0  0  0  0  0
    2.5604    0.1608    0.0000 C   0  0  0  0  0  0  0  0  0
    2.1479    0.8753    0.0000 O   0  0  0  0  0  0  0  0  0
    2.1479   -0.5536    0.0000 C   0  0  0  0  0  0  0  0  0
    1.3229   -0.5536    0.0000 N   0  0  0  0  0  0  0  0  0
    0.9104   -1.2681    0.0000 C   0  0  0  0  0  0  0  0  0
    0.4979   -1.9826    0.0000 C   0  0  0  0  0  0  0  0  0
    1.6249   -1.6806    0.0000 C   0  0  0  0  0  0  0  0  0
    0.1959   -0.8556    0.0000 C   0  0  0  0  0  0  0  0  0
    2.5604   -1.2681    0.0000 C   0  0  0  0  0  0  0  0  0
    3.3854   -1.2681    0.0000 C   0  0  0  0  0  0  0  0  0
    3.7979   -1.9826    0.0000 C   0  0  0  0  0  0  0  0  0
  1  2  1  0  0  0  0
  2  3  4  0  0  0  0
  2  7  4  0  0  0  0
  3  4  4  0  0  0  0
  4  5  4  0  0  0  0
  4  8  1  0  0  0  0
  5  6  4  0  0  0  0
  6  7  4  0  0  0  0
  8  9  2  0  0  0  0
  8 10  1  0  0  0  0
 10 11  1  0  0  0  0
 10 16  1  0  0  0  0
 11 12  1  0  0  0  0
 12 13  1  0  0  0  0
 12 14  1  0  0  0  0
 12 15  1  0  0  0  0
 16 17  1  0  0  0  0
 17 18  1  0  0  0  0
M  END
>  <Name_Molregno>
582976

>  <Dopamine transporter>
7.02

>  <Norepinephrine transporter>
5.93

>  <Serotonin transporter>
5

$$$$
582979
  Marvin  02231216192D 0   1.00000     0.00000     0

 19 19  0  0  1  0  0  0  0  0999 V2000
    0.5598    0.9134    0.0000 Cl  0  0  0  0  0  0  0  0  0
    0.9723    0.1989    0.0000 C   0  0  0  0  0  0  0  0  0
    1.7973    0.1989    0.0000 C   0  0  0  0  0  0  0  0  0
    2.2098   -0.5156    0.0000 C   0  0  0  0  0  0  0  0  0
    1.7973   -1.2300    0.0000 C   0  0  0  0  0  0  0  0  0
    0.9723   -1.2300    0.0000 C   0  0  0  0  0  0  0  0  0
    0.5598   -0.5156    0.0000 C   0  0  0  0  0  0  0  0  0
    3.0348   -0.5156    0.0000 C   0  0  0  0  0  0  0  0  0
    3.4473   -1.2300    0.0000 O   0  0  0  0  0  0  0  0  0
    3.4473    0.1989    0.0000 C   0  0  0  0  0  0  0  0  0
    3.0348    0.9134    0.0000 N   0  0  0  0  0  0  0  0  0
    3.4473    1.6279    0.0000 C   0  0  0  0  0  0  0  0  0
    4.1617    1.2154    0.0000 C   0  0  0  0  0  0  0  0  0
    2.7328    2.0404    0.0000 C   0  0  0  0  0  0  0  0  0
    3.8598    2.3423    0.0000 C   0  0  0  0  0  0  0  0  0
    4.2723    0.1989    0.0000 C   0  0  0  0  0  0  0  0  0
    4.6848    0.9134    0.0000 C   0  0  0  0  0  0  0  0  0
    5.5098    0.9134    0.0000 C   0  0  0  0  0  0  0  0  0
    5.9223    1.6279    0.0000 C   0  0  0  0  0  0  0  0  0
  1  2  1  0  0  0  0
  2  3  4  0  0  0  0
  2  7  4  0  0  0  0
  3  4  4  0  0  0  0
  4  5  4  0  0  0  0
  4  8  1  0  0  0  0
  5  6  4  0  0  0  0
  6  7  4  0  0  0  0
  8  9  2  0  0  0  0
  8 10  1  0  0  0  0
 10 11  1  0  0  0  0
 10 16  1  0  0  0  0
 11 12  1  0  0  0  0
 12 13  1  0  0  0  0
 12 14  1  0  0  0  0
 12 15  1  0  0  0  0
 16 17  1  0  0  0  0
 17 18  1  0  0  0  0
 18 19  1  0  0  0  0
M  END
>  <Name_Molregno>
582979

>  <Dopamine transporter>
6.46

>  <Norepinephrine transporter>
5.5

>  <Serotonin transporter>
5

$$$$
582980
  Marvin  02231216192D 0   1.00000     0.00000     0

 20 20  0  0  1  0  0  0  0  0999 V2000
   -5.7455    1.3589    0.0000 Cl  0  0  0  0  0  0  0  0  0
   -5.2054    0.7353    0.0000 C   0  0  0  0  0  0  0  0  0
   -4.3953    0.8912    0.0000 C   0  0  0  0  0  0  0  0  0
   -3.8552    0.2676    0.0000 C   0  0  0  0  0  0  0  0  0
   -4.1252   -0.5120    0.0000 C   0  0  0  0  0  0  0  0  0
   -4.9354   -0.6679    0.0000 C   0  0  0  0  0  0  0  0  0
   -5.4754   -0.0443    0.0000 C   0  0  0  0  0  0  0  0  0
   -3.0450    0.4235    0.0000 C   0  0  0  0  0  0  0  0  0
   -2.7750    1.2030    0.0000 O   0  0  0  0  0  0  0  0  0
   -2.5050   -0.2002    0.0000 C   0  0  0  0  0  0  0  0  0
   -2.7750   -0.9797    0.0000 N   0  0  0  0  0  0  0  0  0
   -3.5851   -1.1356    0.0000 C   0  0  0  0  0  0  0  0  0
   -3.7410   -0.3255    0.0000 C   0  0  0  0  0  0  0  0  0
   -3.4292   -1.9458    0.0000 C   0  0  0  0  0  0  0  0  0
   -4.3953   -1.2915    0.0000 C   0  0  0  0  0  0  0  0  0
   -1.6948   -0.0443    0.0000 C   0  0  0  0  0  0  0  0  0
   -1.1547   -0.6679    0.0000 C   0  0  0  0  0  0  0  0  0
   -0.3446   -0.5120    0.0000 C   0  0  0  0  0  0  0  0  0
    0.1955   -1.1356    0.0000 C   0  0  0  0  0  0  0  0  0
    1.0056   -0.9797    0.0000 C   0  0  0  0  0  0  0  0  0
  1  2  1  0  0  0  0
  2  3  4  0  0  0  0
  2  7  4  0  0  0  0
  3  4  4  0  0  0  0
  4  5  4  0  0  0  0
  4  8  1  0  0  0  0
  5  6  4  0  0  0  0
  6  7  4  0  0  0  0
  8  9  2  0  0  0  0
  8 10  1  0  0  0  0
 10 11  1  0  0  0  0
 10 16  1  0  0  0  0
 11 12  1  0  0  0  0
 12 13  1  0  0  0  0
 12 14  1  0  0  0  0
 12 15  1  0  0  0  0
 16 17  1  0  0  0  0
 17 18  1  0  0  0  0
 18 19  1  0  0  0  0
 19 20  1  0  0  0  0
M  END
>  <Name_Molregno>
582980

>  <Dopamine transporter>
6.15

>  <Norepinephrine transporter>
5.37

>  <Serotonin transporter>
5

$$$$
582981
  Marvin  02231216192D 0   1.00000     0.00000     0

 21 21  0  0  1  0  0  0  0  0999 V2000
   -4.1569   -1.9942    0.0000 Cl  0  0  0  0  0  0  0  0  0
   -3.8869   -2.7737    0.0000 C   0  0  0  0  0  0  0  0  0
   -3.0768   -2.9296    0.0000 C   0  0  0  0  0  0  0  0  0
   -2.8067   -3.7092    0.0000 C   0  0  0  0  0  0  0  0  0
   -3.3468   -4.3328    0.0000 C   0  0  0  0  0  0  0  0  0
   -4.1569   -4.1769    0.0000 C   0  0  0  0  0  0  0  0  0
   -4.4270   -3.3974    0.0000 C   0  0  0  0  0  0  0  0  0
   -1.9966   -3.8651    0.0000 C   0  0  0  0  0  0  0  0  0
   -1.7265   -4.6446    0.0000 O   0  0  0  0  0  0  0  0  0
   -1.4565   -3.2414    0.0000 C   0  0  0  0  0  0  0  0  0
   -1.7265   -2.4619    0.0000 N   0  0  0  0  0  0  0  0  0
   -1.1865   -1.8383    0.0000 C   0  0  0  0  0  0  0  0  0
   -0.5628   -2.3783    0.0000 C   0  0  0  0  0  0  0  0  0
   -1.8101   -1.2982    0.0000 C   0  0  0  0  0  0  0  0  0
   -0.6464   -1.2146    0.0000 C   0  0  0  0  0  0  0  0  0
   -0.6464   -3.3974    0.0000 C   0  0  0  0  0  0  0  0  0
   -0.1063   -2.7737    0.0000 C   0  0  0  0  0  0  0  0  0
    0.7039   -2.9296    0.0000 C   0  0  0  0  0  0  0  0  0
    1.2439   -2.3060    0.0000 C   0  0  0  0  0  0  0  0  0
    2.0541   -2.4619    0.0000 C   0  0  0  0  0  0  0  0  0
    2.5942   -1.8383    0.0000 C   0  0  0  0  0  0  0  0  0
  1  2  1  0  0  0  0
  2  3  4  0  0  0  0
  2  7  4  0  0  0  0
  3  4  4  0  0  0  0
  4  5  4  0  0  0  0
  4  8  1  0  0  0  0
  5  6  4  0  0  0  0
  6  7  4  0  0  0  0
  8  9  2  0  0  0  0
  8 10  1  0  0  0  0
 10 11  1  0  0  0  0
 10 16  1  0  0  0  0
 11 12  1  0  0  0  0
 12 13  1  0  0  0  0
 12 14  1  0  0  0  0
 12 15  1  0  0  0  0
 16 17  1  0  0  0  0
 17 18  1  0  0  0  0
 18 19  1  0  0  0  0
 19 20  1  0  0  0  0
 20 21  1  0  0  0  0
M  END
>  <Name_Molregno>
582981

>  <Dopamine transporter>
6.29

>  <Norepinephrine transporter>
5.59

>  <Serotonin transporter>
5

$$$$
582982
  Marvin  02231216192D 0   1.00000     0.00000     0

 19 19  0  0  1  0  0  0  0  0999 V2000
    0.8964    0.1921    0.0000 Cl  0  0  0  0  0  0  0  0  0
    1.3089   -0.5224    0.0000 C   0  0  0  0  0  0  0  0  0
    2.1339   -0.5224    0.0000 C   0  0  0  0  0  0  0  0  0
    2.5464   -1.2368    0.0000 C   0  0  0  0  0  0  0  0  0
    2.1339   -1.9513    0.0000 C   0  0  0  0  0  0  0  0  0
    1.3089   -1.9513    0.0000 C   0  0  0  0  0  0  0  0  0
    0.8964   -1.2368    0.0000 C   0  0  0  0  0  0  0  0  0
    3.3714   -1.2368    0.0000 C   0  0  0  0  0  0  0  0  0
    3.7839   -1.9513    0.0000 O   0  0  0  0  0  0  0  0  0
    3.7839   -0.5224    0.0000 C   0  0  0  0  0  0  0  0  0
    3.3714    0.1921    0.0000 N   0  0  0  0  0  0  0  0  0
    2.5464    0.1921    0.0000 C   0  0  0  0  0  0  0  0  0
    1.7214    0.1921    0.0000 C   0  0  0  0  0  0  0  0  0
    2.5464   -0.6329    0.0000 C   0  0  0  0  0  0  0  0  0
    2.5464    1.0171    0.0000 C   0  0  0  0  0  0  0  0  0
    4.6089   -0.5224    0.0000 C   0  0  0  0  0  0  0  0  0
    5.0214    0.1921    0.0000 C   0  0  0  0  0  0  0  0  0
    4.6089    0.9066    0.0000 C   0  0  0  0  0  0  0  0  0
    5.8464    0.1921    0.0000 C   0  0  0  0  0  0  0  0  0
  1  2  1  0  0  0  0
  2  3  4  0  0  0  0
  2  7  4  0  0  0  0
  3  4  4  0  0  0  0
  4  5  4  0  0  0  0
  4  8  1  0  0  0  0
  5  6  4  0  0  0  0
  6  7  4  0  0  0  0
  8  9  2  0  0  0  0
  8 10  1  0  0  0  0
 10 11  1  0  0  0  0
 10 16  1  0  0  0  0
 11 12  1  0  0  0  0
 12 13  1  0  0  0  0
 12 14  1  0  0  0  0
 12 15  1  0  0  0  0
 16 17  1  0  0  0  0
 17 18  1  0  0  0  0
 17 19  1  0  0  0  0
M  END
>  <Name_Molregno>
582982

>  <Dopamine transporter>
6.85

>  <Norepinephrine transporter>
5.64

>  <Serotonin transporter>
5.21

$$$$
582989
  Marvin  02231216192D 0   1.00000     0.00000     0

 16 16  0  0  1  0  0  0  0  0999 V2000
    1.5763    2.8730    0.0000 Cl  0  0  0  0  0  0  0  0  0
    1.5763    2.0480    0.0000 C   0  0  0  0  0  0  0  0  0
    2.2907    1.6355    0.0000 C   0  0  0  0  0  0  0  0  0
    2.2907    0.8105    0.0000 C   0  0  0  0  0  0  0  0  0
    1.5763    0.3980    0.0000 C   0  0  0  0  0  0  0  0  0
    0.8618    0.8105    0.0000 C   0  0  0  0  0  0  0  0  0
    0.8618    1.6355    0.0000 C   0  0  0  0  0  0  0  0  0
    3.0052    0.3980    0.0000 C   0  0  0  0  0  0  0  0  0
    3.7197    0.8105    0.0000 O   0  0  0  0  0  0  0  0  0
    3.0052   -0.4270    0.0000 C   0  0  0  0  0  0  0  0  0
    3.7197   -0.8395    0.0000 N   0  0  0  0  0  0  0  0  0
    3.7197   -1.6645    0.0000 C   0  0  0  0  0  0  0  0  0
    4.4341   -2.0770    0.0000 C   0  0  0  0  0  0  0  0  0
    4.4341   -0.4270    0.0000 C   0  0  0  0  0  0  0  0  0
    5.1486   -0.8395    0.0000 C   0  0  0  0  0  0  0  0  0
    2.2907   -0.8395    0.0000 C   0  0  0  0  0  0  0  0  0
  1  2  1  0  0  0  0
  2  3  4  0  0  0  0
  2  7  4  0  0  0  0
  3  4  4  0  0  0  0
  4  5  4  0  0  0  0
  4  8  1  0  0  0  0
  5  6  4  0  0  0  0
  6  7  4  0  0  0  0
  8  9  2  0  0  0  0
  8 10  1  0  0  0  0
 10 11  1  0  0  0  0
 10 16  1  0  0  0  0
 11 12  1  0  0  0  0
 11 14  1  0  0  0  0
 12 13  1  0  0  0  0
 14 15  1  0  0  0  0
M  END
>  <Name_Molregno>
582989

>  <Dopamine transporter>
5.65

>  <Norepinephrine transporter>
5.35

>  <Serotonin transporter>
5

$$$$
582990
  Marvin  02231216192D 0   1.00000     0.00000     0

 17 18  0  0  1  0  0  0  0  0999 V2000
    1.2672    1.9611    0.0000 Cl  0  0  0  0  0  0  0  0  0
    1.2672    1.1361    0.0000 C   0  0  0  0  0  0  0  0  0
    1.9817    0.7236    0.0000 C   0  0  0  0  0  0  0  0  0
    1.9817   -0.1014    0.0000 C   0  0  0  0  0  0  0  0  0
    1.2672   -0.5139    0.0000 C   0  0  0  0  0  0  0  0  0
    0.5527   -0.1014    0.0000 C   0  0  0  0  0  0  0  0  0
    0.5527    0.7236    0.0000 C   0  0  0  0  0  0  0  0  0
    2.6962   -0.5139    0.0000 C   0  0  0  0  0  0  0  0  0
    2.6962   -1.3389    0.0000 O   0  0  0  0  0  0  0  0  0
    3.4106   -0.1014    0.0000 C   0  0  0  0  0  0  0  0  0
    4.1251   -0.5139    0.0000 N   0  0  0  0  0  0  0  0  0
    4.8396   -0.1014    0.0000 C   0  0  0  0  0  0  0  0  0
    5.5540   -0.5139    0.0000 C   0  0  0  0  0  0  0  0  0
    5.5540   -1.3389    0.0000 C   0  0  0  0  0  0  0  0  0
    4.8396   -1.7514    0.0000 C   0  0  0  0  0  0  0  0  0
    4.1251   -1.3389    0.0000 C   0  0  0  0  0  0  0  0  0
    3.4106    0.7236    0.0000 C   0  0  0  0  0  0  0  0  0
  1  2  1  0  0  0  0
  2  3  4  0  0  0  0
  2  7  4  0  0  0  0
  3  4  4  0  0  0  0
  4  5  4  0  0  0  0
  4  8  1  0  0  0  0
  5  6  4  0  0  0  0
  6  7  4  0  0  0  0
  8  9  2  0  0  0  0
  8 10  1  0  0  0  0
 10 11  1  0  0  0  0
 10 17  1  0  0  0  0
 11 12  1  0  0  0  0
 11 16  1  0  0  0  0
 12 13  1  0  0  0  0
 13 14  1  0  0  0  0
 14 15  1  0  0  0  0
 15 16  1  0  0  0  0
M  END
>  <Name_Molregno>
582990

>  <Dopamine transporter>
5.94

>  <Norepinephrine transporter>
5.32

>  <Serotonin transporter>
5.26

$$$$
582991
  Marvin  02231216192D 0   1.00000     0.00000     0

 14 14  0  0  1  0  0  0  0  0999 V2000
   -0.0831   -0.9291    0.0000 S   0  0  0  0  0  0  0  0  0
   -0.6351   -0.3160    0.0000 C   0  0  0  0  0  0  0  0  0
   -0.2226    0.3985    0.0000 C   0  0  0  0  0  0  0  0  0
    0.5844    0.2269    0.0000 C   0  0  0  0  0  0  0  0  0
    0.6706   -0.5935    0.0000 C   0  0  0  0  0  0  0  0  0
    1.3851   -1.0060    0.0000 C   0  0  0  0  0  0  0  0  0
    1.3851   -1.8310    0.0000 O   0  0  0  0  0  0  0  0  0
    2.0995   -0.5935    0.0000 C   0  0  0  0  0  0  0  0  0
    2.8140   -1.0060    0.0000 N   0  0  0  0  0  0  0  0  0
    3.5285   -0.5935    0.0000 C   0  0  0  0  0  0  0  0  0
    4.2429   -0.1810    0.0000 C   0  0  0  0  0  0  0  0  0
    3.9410   -1.3080    0.0000 C   0  0  0  0  0  0  0  0  0
    3.1160    0.1209    0.0000 C   0  0  0  0  0  0  0  0  0
    2.0995    0.2315    0.0000 C   0  0  0  0  0  0  0  0  0
  1  2  4  0  0  0  0
  1  5  4  0  0  0  0
  2  3  4  0  0  0  0
  3  4  4  0  0  0  0
  4  5  4  0  0  0  0
  5  6  1  0  0  0  0
  6  7  2  0  0  0  0
  6  8  1  0  0  0  0
  8  9  1  0  0  0  0
  8 14  1  0  0  0  0
  9 10  1  0  0  0  0
 10 11  1  0  0  0  0
 10 12  1  0  0  0  0
 10 13  1  0  0  0  0
M  END
>  <Name_Molregno>
582991

>  <Dopamine transporter>
5

>  <Norepinephrine transporter>
5

>  <Serotonin transporter>
5

$$$$
582996
  Marvin  02231216192D 0   1.00000     0.00000     0

 23 24  0  0  1  0  0  0  0  0999 V2000
    0.6213   -1.2479    0.0000 Cl  0  0  0  0  0  0  0  0  0
    1.3358   -1.6604    0.0000 C   0  0  0  0  0  0  0  0  0
    2.0503   -1.2479    0.0000 C   0  0  0  0  0  0  0  0  0
    2.7647   -1.6604    0.0000 C   0  0  0  0  0  0  0  0  0
    2.7647   -2.4854    0.0000 C   0  0  0  0  0  0  0  0  0
    2.0503   -2.8979    0.0000 C   0  0  0  0  0  0  0  0  0
    1.3358   -2.4854    0.0000 C   0  0  0  0  0  0  0  0  0
    3.4792   -1.2479    0.0000 C   0  0  0  0  0  0  0  0  0
    4.1937   -1.6604    0.0000 O   0  0  0  0  0  0  0  0  0
    3.4792   -0.4229    0.0000 C   0  0  0  0  0  0  0  0  0
    2.7647   -0.0104    0.0000 N   0  0  0  0  0  0  0  0  0
    2.7647    0.8146    0.0000 C   0  0  0  0  0  0  0  0  0
    3.5897    0.8146    0.0000 C   0  0  0  0  0  0  0  0  0
    1.9397    0.8146    0.0000 C   0  0  0  0  0  0  0  0  0
    2.7647    1.6396    0.0000 C   0  0  0  0  0  0  0  0  0
    4.1937   -0.0104    0.0000 C   0  0  0  0  0  0  0  0  0
    4.1937    0.8146    0.0000 C   0  0  0  0  0  0  0  0  0
    4.9081    1.2271    0.0000 C   0  0  0  0  0  0  0  0  0
    4.9081    2.0521    0.0000 C   0  0  0  0  0  0  0  0  0
    5.6226    2.4646    0.0000 C   0  0  0  0  0  0  0  0  0
    6.3371    2.0521    0.0000 C   0  0  0  0  0  0  0  0  0
    6.3371    1.2271    0.0000 C   0  0  0  0  0  0  0  0  0
    5.6226    0.8146    0.0000 C   0  0  0  0  0  0  0  0  0
  1  2  1  0  0  0  0
  2  3  4  0  0  0  0
  2  7  4  0  0  0  0
  3  4  4  0  0  0  0
  4  5  4  0  0  0  0
  4  8  1  0  0  0  0
  5  6  4  0  0  0  0
  6  7  4  0  0  0  0
  8  9  2  0  0  0  0
  8 10  1  0  0  0  0
 10 11  1  0  0  0  0
 10 16  1  0  0  0  0
 11 12  1  0  0  0  0
 12 13  1  0  0  0  0
 12 14  1  0  0  0  0
 12 15  1  0  0  0  0
 16 17  1  0  0  0  0
 17 18  1  0  0  0  0
 18 19  1  0  0  0  0
 18 23  1  0  0  0  0
 19 20  1  0  0  0  0
 20 21  1  0  0  0  0
 21 22  1  0  0  0  0
 22 23  1  0  0  0  0
M  END
>  <Name_Molregno>
582996

>  <Dopamine transporter>
5.77

>  <Norepinephrine transporter>
5.42

>  <Serotonin transporter>
5.21

$$$$
582997
  Marvin  02231216192D 0   1.00000     0.00000     0

 15 15  0  0  1  0  0  0  0  0999 V2000
    1.2559    2.3207    0.0000 Cl  0  0  0  0  0  0  0  0  0
    1.2559    1.4957    0.0000 C   0  0  0  0  0  0  0  0  0
    1.9704    1.0832    0.0000 C   0  0  0  0  0  0  0  0  0
    1.9704    0.2582    0.0000 C   0  0  0  0  0  0  0  0  0
    1.2559   -0.1543    0.0000 C   0  0  0  0  0  0  0  0  0
    0.5415    0.2582    0.0000 C   0  0  0  0  0  0  0  0  0
    0.5415    1.0832    0.0000 C   0  0  0  0  0  0  0  0  0
    2.6849   -0.1543    0.0000 C   0  0  0  0  0  0  0  0  0
    2.6849   -0.9793    0.0000 O   0  0  0  0  0  0  0  0  0
    3.3994    0.2582    0.0000 C   0  0  0  0  0  0  0  0  0
    4.1138   -0.1543    0.0000 N   0  0  0  0  0  0  0  0  0
    4.8283    0.2582    0.0000 C   0  0  0  0  0  0  0  0  0
    5.5428   -0.1543    0.0000 C   0  0  0  0  0  0  0  0  0
    6.2572    0.2582    0.0000 C   0  0  0  0  0  0  0  0  0
    3.3994    1.0832    0.0000 C   0  0  0  0  0  0  0  0  0
  1  2  1  0  0  0  0
  2  3  4  0  0  0  0
  2  7  4  0  0  0  0
  3  4  4  0  0  0  0
  4  5  4  0  0  0  0
  4  8  1  0  0  0  0
  5  6  4  0  0  0  0
  6  7  4  0  0  0  0
  8  9  2  0  0  0  0
  8 10  1  0  0  0  0
 10 11  1  0  0  0  0
 10 15  1  0  0  0  0
 11 12  1  0  0  0  0
 12 13  1  0  0  0  0
 13 14  1  0  0  0  0
M  END
>  <Name_Molregno>
582997

>  <Dopamine transporter>
5

>  <Norepinephrine transporter>
5

>  <Serotonin transporter>
5

$$$$
582998
  Marvin  02231216192D 0   1.00000     0.00000     0

 17 17  0  0  1  0  0  0  0  0999 V2000
   -0.0805    0.6474    0.0000 Cl  0  0  0  0  0  0  0  0  0
    0.6339    0.2349    0.0000 C   0  0  0  0  0  0  0  0  0
    1.3484    0.6474    0.0000 C   0  0  0  0  0  0  0  0  0
    2.0629    0.2349    0.0000 C   0  0  0  0  0  0  0  0  0
    2.0629   -0.5901    0.0000 C   0  0  0  0  0  0  0  0  0
    1.3484   -1.0026    0.0000 C   0  0  0  0  0  0  0  0  0
    0.6339   -0.5901    0.0000 C   0  0  0  0  0  0  0  0  0
    2.7773    0.6474    0.0000 C   0  0  0  0  0  0  0  0  0
    2.7773    1.4724    0.0000 O   0  0  0  0  0  0  0  0  0
    3.4918    0.2349    0.0000 C   0  0  0  0  0  0  0  0  0
    4.2063    0.6474    0.0000 C   0  0  0  0  0  0  0  0  0
    4.9208    0.2349    0.0000 N   0  0  0  0  0  0  0  0  0
    5.6352    0.6474    0.0000 C   0  0  0  0  0  0  0  0  0
    6.3497    1.0599    0.0000 C   0  0  0  0  0  0  0  0  0
    6.0477   -0.0670    0.0000 C   0  0  0  0  0  0  0  0  0
    5.2227    1.3619    0.0000 C   0  0  0  0  0  0  0  0  0
    3.4918   -0.5901    0.0000 C   0  0  0  0  0  0  0  0  0
  1  2  1  0  0  0  0
  2  3  4  0  0  0  0
  2  7  4  0  0  0  0
  3  4  4  0  0  0  0
  4  5  4  0  0  0  0
  4  8  1  0  0  0  0
  5  6  4  0  0  0  0
  6  7  4  0  0  0  0
  8  9  2  0  0  0  0
  8 10  1  0  0  0  0
 10 11  1  0  0  0  0
 10 17  1  0  0  0  0
 11 12  1  0  0  0  0
 12 13  1  0  0  0  0
 13 14  1  0  0  0  0
 13 15  1  0  0  0  0
 13 16  1  0  0  0  0
M  END
>  <Name_Molregno>
582998

>  <Dopamine transporter>
5

>  <Norepinephrine transporter>
5

>  <Serotonin transporter>
5

$$$$
582999
  Marvin  02231216192D 0   1.00000     0.00000     0

 17 18  0  0  1  0  0  0  0  0999 V2000
   -0.0728   -0.0163    0.0000 Cl  0  0  0  0  0  0  0  0  0
    0.6417    0.3962    0.0000 C   0  0  0  0  0  0  0  0  0
    1.3561   -0.0163    0.0000 C   0  0  0  0  0  0  0  0  0
    2.0706    0.3962    0.0000 C   0  0  0  0  0  0  0  0  0
    2.0706    1.2212    0.0000 C   0  0  0  0  0  0  0  0  0
    2.7851    1.6337    0.0000 C   0  0  0  0  0  0  0  0  0
    3.4996    1.2212    0.0000 N   0  0  0  0  0  0  0  0  0
    4.2140    1.6337    0.0000 C   0  0  0  0  0  0  0  0  0
    4.9285    2.0462    0.0000 C   0  0  0  0  0  0  0  0  0
    4.6265    0.9192    0.0000 C   0  0  0  0  0  0  0  0  0
    3.8015    2.3482    0.0000 C   0  0  0  0  0  0  0  0  0
    3.4996    0.3962    0.0000 C   0  0  0  0  0  0  0  0  0
    4.2140   -0.0163    0.0000 C   0  0  0  0  0  0  0  0  0
    2.7851   -0.0163    0.0000 C   0  0  0  0  0  0  0  0  0
    2.7851   -0.8413    0.0000 O   0  0  0  0  0  0  0  0  0
    1.3561    1.6337    0.0000 C   0  0  0  0  0  0  0  0  0
    0.6417    1.2212    0.0000 C   0  0  0  0  0  0  0  0  0
  1  2  1  0  0  0  0
  2  3  4  0  0  0  0
  2 17  4  0  0  0  0
  3  4  4  0  0  0  0
  4  5  4  0  0  0  0
  4 14  1  0  0  0  0
  5  6  1  0  0  0  0
  5 16  4  0  0  0  0
  6  7  1  0  0  0  0
  7  8  1  0  0  0  0
  7 12  1  0  0  0  0
  8  9  1  0  0  0  0
  8 10  1  0  0  0  0
  8 11  1  0  0  0  0
 12 13  1  0  0  0  0
 12 14  1  0  0  0  0
 14 15  2  0  0  0  0
 16 17  4  0  0  0  0
M  END
>  <Name_Molregno>
582999

>  <Dopamine transporter>
5

>  <Norepinephrine transporter>
5

>  <Serotonin transporter>
5

$$$$
583005
  Marvin  02231216192D 0   1.00000     0.00000     0

 15 15  0  0  1  0  0  0  0  0999 V2000
    0.2143   -2.6013    0.0000 O   0  0  0  0  0  0  0  0  0
    0.2143   -1.7763    0.0000 C   0  0  0  0  0  0  0  0  0
    0.9288   -1.3638    0.0000 C   0  0  0  0  0  0  0  0  0
    1.6432   -1.7763    0.0000 N   0  0  0  0  0  0  0  0  0
    2.3577   -1.3638    0.0000 C   0  0  0  0  0  0  0  0  0
    3.0722   -0.9513    0.0000 C   0  0  0  0  0  0  0  0  0
    1.9452   -0.6493    0.0000 C   0  0  0  0  0  0  0  0  0
    2.7702   -2.0782    0.0000 C   0  0  0  0  0  0  0  0  0
    0.9288   -0.5388    0.0000 C   0  0  0  0  0  0  0  0  0
   -0.5002   -1.3638    0.0000 C   0  0  0  0  0  0  0  0  0
   -1.2146   -1.7763    0.0000 C   0  0  0  0  0  0  0  0  0
   -1.9291   -1.3637    0.0000 C   0  0  0  0  0  0  0  0  0
   -1.9291   -0.5387    0.0000 C   0  0  0  0  0  0  0  0  0
   -1.2146   -0.1262    0.0000 C   0  0  0  0  0  0  0  0  0
   -0.5002   -0.5387    0.0000 C   0  0  0  0  0  0  0  0  0
  1  2  2  0  0  0  0
  2  3  1  0  0  0  0
  2 10  1  0  0  0  0
  3  4  1  0  0  0  0
  3  9  1  0  0  0  0
  4  5  1  0  0  0  0
  5  6  1  0  0  0  0
  5  7  1  0  0  0  0
  5  8  1  0  0  0  0
 10 11  4  0  0  0  0
 10 15  4  0  0  0  0
 11 12  4  0  0  0  0
 12 13  4  0  0  0  0
 13 14  4  0  0  0  0
 14 15  4  0  0  0  0
M  END
>  <Name_Molregno>
583005

>  <Dopamine transporter>
5.24

>  <Norepinephrine transporter>
5.24

>  <Serotonin transporter>
5

$$$$
583011
  Marvin  02231216192D 0   1.00000     0.00000     0

 16 16  0  0  1  0  0  0  0  0999 V2000
    1.2680    2.2852    0.0000 F   0  0  0  0  0  0  0  0  0
    1.2680    1.4602    0.0000 C   0  0  0  0  0  0  0  0  0
    1.9824    1.0477    0.0000 C   0  0  0  0  0  0  0  0  0
    1.9824    0.2227    0.0000 C   0  0  0  0  0  0  0  0  0
    1.2680   -0.1898    0.0000 C   0  0  0  0  0  0  0  0  0
    0.5535    0.2227    0.0000 C   0  0  0  0  0  0  0  0  0
    0.5535    1.0477    0.0000 C   0  0  0  0  0  0  0  0  0
    2.6969   -0.1898    0.0000 C   0  0  0  0  0  0  0  0  0
    2.6969   -1.0148    0.0000 O   0  0  0  0  0  0  0  0  0
    3.4114    0.2227    0.0000 C   0  0  0  0  0  0  0  0  0
    4.1259   -0.1898    0.0000 N   0  0  0  0  0  0  0  0  0
    4.8403    0.2227    0.0000 C   0  0  0  0  0  0  0  0  0
    5.5548    0.6352    0.0000 C   0  0  0  0  0  0  0  0  0
    5.2528   -0.4917    0.0000 C   0  0  0  0  0  0  0  0  0
    4.4278    0.9372    0.0000 C   0  0  0  0  0  0  0  0  0
    3.4114    1.0477    0.0000 C   0  0  0  0  0  0  0  0  0
  1  2  1  0  0  0  0
  2  3  4  0  0  0  0
  2  7  4  0  0  0  0
  3  4  4  0  0  0  0
  4  5  4  0  0  0  0
  4  8  1  0  0  0  0
  5  6  4  0  0  0  0
  6  7  4  0  0  0  0
  8  9  2  0  0  0  0
  8 10  1  0  0  0  0
 10 11  1  0  0  0  0
 10 16  1  0  0  0  0
 11 12  1  0  0  0  0
 12 13  1  0  0  0  0
 12 14  1  0  0  0  0
 12 15  1  0  0  0  0
M  END
>  <Name_Molregno>
583011

>  <Dopamine transporter>
5.35

>  <Norepinephrine transporter>
5

>  <Serotonin transporter>
5

$$$$
583012
  Marvin  02231216192D 0   1.00000     0.00000     0

 16 16  0  0  1  0  0  0  0  0999 V2000
    1.2680    2.2852    0.0000 Br  0  0  0  0  0  0  0  0  0
    1.2680    1.4602    0.0000 C   0  0  0  0  0  0  0  0  0
    1.9824    1.0477    0.0000 C   0  0  0  0  0  0  0  0  0
    1.9824    0.2227    0.0000 C   0  0  0  0  0  0  0  0  0
    1.2680   -0.1898    0.0000 C   0  0  0  0  0  0  0  0  0
    0.5535    0.2227    0.0000 C   0  0  0  0  0  0  0  0  0
    0.5535    1.0477    0.0000 C   0  0  0  0  0  0  0  0  0
    2.6969   -0.1898    0.0000 C   0  0  0  0  0  0  0  0  0
    2.6969   -1.0148    0.0000 O   0  0  0  0  0  0  0  0  0
    3.4114    0.2227    0.0000 C   0  0  0  0  0  0  0  0  0
    4.1259   -0.1898    0.0000 N   0  0  0  0  0  0  0  0  0
    4.8403    0.2227    0.0000 C   0  0  0  0  0  0  0  0  0
    5.5548    0.6352    0.0000 C   0  0  0  0  0  0  0  0  0
    5.2528   -0.4917    0.0000 C   0  0  0  0  0  0  0  0  0
    4.4278    0.9372    0.0000 C   0  0  0  0  0  0  0  0  0
    3.4114    1.0477    0.0000 C   0  0  0  0  0  0  0  0  0
  1  2  1  0  0  0  0
  2  3  4  0  0  0  0
  2  7  4  0  0  0  0
  3  4  4  0  0  0  0
  4  5  4  0  0  0  0
  4  8  1  0  0  0  0
  5  6  4  0  0  0  0
  6  7  4  0  0  0  0
  8  9  2  0  0  0  0
  8 10  1  0  0  0  0
 10 11  1  0  0  0  0
 10 16  1  0  0  0  0
 11 12  1  0  0  0  0
 12 13  1  0  0  0  0
 12 14  1  0  0  0  0
 12 15  1  0  0  0  0
M  END
>  <Name_Molregno>
583012

>  <Dopamine transporter>
5.38

>  <Norepinephrine transporter>
5.15

>  <Serotonin transporter>
5

$$$$
583013
  Marvin  02231216192D 0   1.00000     0.00000     0

 15 15  0  0  1  0  0  0  0  0999 V2000
   -0.0684    0.9585    0.0000 Cl  0  0  0  0  0  0  0  0  0
    0.6460    0.5460    0.0000 C   0  0  0  0  0  0  0  0  0
    1.3605    0.9585    0.0000 C   0  0  0  0  0  0  0  0  0
    2.0750    0.5460    0.0000 C   0  0  0  0  0  0  0  0  0
    2.0750   -0.2790    0.0000 C   0  0  0  0  0  0  0  0  0
    1.3605   -0.6915    0.0000 C   0  0  0  0  0  0  0  0  0
    0.6460   -0.2790    0.0000 C   0  0  0  0  0  0  0  0  0
    2.7894    0.9585    0.0000 C   0  0  0  0  0  0  0  0  0
    2.7894    1.7835    0.0000 O   0  0  0  0  0  0  0  0  0
    3.5039    0.5460    0.0000 C   0  0  0  0  0  0  0  0  0
    4.2184    0.9585    0.0000 N   0  0  0  0  0  0  0  0  0
    4.9329    0.5460    0.0000 C   0  0  0  0  0  0  0  0  0
    5.6473    0.9585    0.0000 C   0  0  0  0  0  0  0  0  0
    4.9329   -0.2790    0.0000 C   0  0  0  0  0  0  0  0  0
    3.5039   -0.2790    0.0000 C   0  0  0  0  0  0  0  0  0
  1  2  1  0  0  0  0
  2  3  4  0  0  0  0
  2  7  4  0  0  0  0
  3  4  4  0  0  0  0
  4  5  4  0  0  0  0
  4  8  1  0  0  0  0
  5  6  4  0  0  0  0
  6  7  4  0  0  0  0
  8  9  2  0  0  0  0
  8 10  1  0  0  0  0
 10 11  1  0  0  0  0
 10 15  1  0  0  0  0
 11 12  1  0  0  0  0
 12 13  1  0  0  0  0
 12 14  1  0  0  0  0
M  END
>  <Name_Molregno>
583013

>  <Dopamine transporter>
5.4

>  <Norepinephrine transporter>
5

>  <Serotonin transporter>
5

$$$$
583021
  Marvin  02231216192D 0   1.00000     0.00000     0

 15 16  0  0  1  0  0  0  0  0999 V2000
    1.7753    3.1648    0.0000 Cl  0  0  0  0  0  0  0  0  0
    1.7753    2.3398    0.0000 C   0  0  0  0  0  0  0  0  0
    2.4898    1.9273    0.0000 C   0  0  0  0  0  0  0  0  0
    2.4898    1.1023    0.0000 C   0  0  0  0  0  0  0  0  0
    1.7753    0.6898    0.0000 C   0  0  0  0  0  0  0  0  0
    1.0609    1.1023    0.0000 C   0  0  0  0  0  0  0  0  0
    1.0609    1.9273    0.0000 C   0  0  0  0  0  0  0  0  0
    3.2043    0.6898    0.0000 C   0  0  0  0  0  0  0  0  0
    3.9187    1.1023    0.0000 O   0  0  0  0  0  0  0  0  0
    3.2043   -0.1352    0.0000 C   0  0  0  0  0  0  0  0  0
    3.9187   -0.5477    0.0000 N   0  0  0  0  0  0  0  0  0
    3.9187   -1.3727    0.0000 C   0  0  0  0  0  0  0  0  0
    4.3312   -2.0871    0.0000 C   0  0  0  0  0  0  0  0  0
    3.5062   -2.0871    0.0000 C   0  0  0  0  0  0  0  0  0
    2.4898   -0.5477    0.0000 C   0  0  0  0  0  0  0  0  0
  1  2  1  0  0  0  0
  2  3  4  0  0  0  0
  2  7  4  0  0  0  0
  3  4  4  0  0  0  0
  4  5  4  0  0  0  0
  4  8  1  0  0  0  0
  5  6  4  0  0  0  0
  6  7  4  0  0  0  0
  8  9  2  0  0  0  0
  8 10  1  0  0  0  0
 10 11  1  0  0  0  0
 10 15  1  0  0  0  0
 11 12  1  0  0  0  0
 12 13  1  0  0  0  0
 12 14  1  0  0  0  0
 13 14  1  0  0  0  0
M  END
>  <Name_Molregno>
583021

>  <Dopamine transporter>
5.94

>  <Norepinephrine transporter>
5.4

>  <Serotonin transporter>
5.47

$$$$
583022
  Marvin  02231216192D 0   1.00000     0.00000     0

 17 18  0  0  1  0  0  0  0  0999 V2000
   -0.0725   -1.0868    0.0000 Cl  0  0  0  0  0  0  0  0  0
    0.6420   -0.6743    0.0000 C   0  0  0  0  0  0  0  0  0
    1.3564   -1.0868    0.0000 C   0  0  0  0  0  0  0  0  0
    2.0709   -0.6743    0.0000 C   0  0  0  0  0  0  0  0  0
    2.0709    0.1507    0.0000 C   0  0  0  0  0  0  0  0  0
    2.7854    0.5632    0.0000 C   0  0  0  0  0  0  0  0  0
    3.4998    0.1507    0.0000 C   0  0  0  0  0  0  0  0  0
    3.4998   -0.6743    0.0000 C   0  0  0  0  0  0  0  0  0
    4.2143   -1.0868    0.0000 N   0  0  0  0  0  0  0  0  0
    4.9288   -0.6743    0.0000 C   0  0  0  0  0  0  0  0  0
    5.6433   -0.2618    0.0000 C   0  0  0  0  0  0  0  0  0
    5.3413   -1.3887    0.0000 C   0  0  0  0  0  0  0  0  0
    4.5163    0.0402    0.0000 C   0  0  0  0  0  0  0  0  0
    2.7854   -1.0868    0.0000 C   0  0  0  0  0  0  0  0  0
    2.7854   -1.9118    0.0000 O   0  0  0  0  0  0  0  0  0
    1.3564    0.5632    0.0000 C   0  0  0  0  0  0  0  0  0
    0.6420    0.1507    0.0000 C   0  0  0  0  0  0  0  0  0
  1  2  1  0  0  0  0
  2  3  4  0  0  0  0
  2 17  4  0  0  0  0
  3  4  4  0  0  0  0
  4  5  4  0  0  0  0
  4 14  1  0  0  0  0
  5  6  1  0  0  0  0
  5 16  4  0  0  0  0
  6  7  1  0  0  0  0
  7  8  1  0  0  0  0
  8  9  1  0  0  0  0
  8 14  1  0  0  0  0
  9 10  1  0  0  0  0
 10 11  1  0  0  0  0
 10 12  1  0  0  0  0
 10 13  1  0  0  0  0
 14 15  2  0  0  0  0
 16 17  4  0  0  0  0
M  END
>  <Name_Molregno>
583022

>  <Dopamine transporter>
5

>  <Norepinephrine transporter>
5

>  <Serotonin transporter>
5

$$$$
583030
  Marvin  02231216192D 0   1.00000     0.00000     0

 16 17  0  0  1  0  0  0  0  0999 V2000
    1.8758    2.3086    0.0000 Cl  0  0  0  0  0  0  0  0  0
    1.8758    1.4836    0.0000 C   0  0  0  0  0  0  0  0  0
    2.5903    1.0711    0.0000 C   0  0  0  0  0  0  0  0  0
    2.5903    0.2461    0.0000 C   0  0  0  0  0  0  0  0  0
    1.8758   -0.1664    0.0000 C   0  0  0  0  0  0  0  0  0
    1.1613    0.2461    0.0000 C   0  0  0  0  0  0  0  0  0
    1.1613    1.0711    0.0000 C   0  0  0  0  0  0  0  0  0
    3.3048   -0.1664    0.0000 C   0  0  0  0  0  0  0  0  0
    4.0192    0.2461    0.0000 O   0  0  0  0  0  0  0  0  0
    3.3048   -0.9914    0.0000 C   0  0  0  0  0  0  0  0  0
    4.0192   -1.4039    0.0000 N   0  0  0  0  0  0  0  0  0
    4.0192   -2.2289    0.0000 C   0  0  0  0  0  0  0  0  0
    4.6026   -2.8123    0.0000 C   0  0  0  0  0  0  0  0  0
    4.0192   -3.3956    0.0000 C   0  0  0  0  0  0  0  0  0
    3.4359   -2.8123    0.0000 C   0  0  0  0  0  0  0  0  0
    2.5903   -1.4039    0.0000 C   0  0  0  0  0  0  0  0  0
  1  2  1  0  0  0  0
  2  3  4  0  0  0  0
  2  7  4  0  0  0  0
  3  4  4  0  0  0  0
  4  5  4  0  0  0  0
  4  8  1  0  0  0  0
  5  6  4  0  0  0  0
  6  7  4  0  0  0  0
  8  9  2  0  0  0  0
  8 10  1  0  0  0  0
 10 11  1  0  0  0  0
 10 16  1  0  0  0  0
 11 12  1  0  0  0  0
 12 13  1  0  0  0  0
 12 15  1  0  0  0  0
 13 14  1  0  0  0  0
 14 15  1  0  0  0  0
M  END
>  <Name_Molregno>
583030

>  <Dopamine transporter>
6.46

>  <Norepinephrine transporter>
5.74

>  <Serotonin transporter>
5.46

$$$$
583033
  Marvin  02231216192D 0   1.00000     0.00000     0

 16 16  0  0  1  0  0  0  0  0999 V2000
    0.5491   -2.4504    0.0000 O   0  0  0  0  0  0  0  0  0
    0.5491   -1.6254    0.0000 C   0  0  0  0  0  0  0  0  0
    1.2635   -1.2129    0.0000 C   0  0  0  0  0  0  0  0  0
    1.9780   -1.6254    0.0000 N   0  0  0  0  0  0  0  0  0
    2.6925   -1.2129    0.0000 C   0  0  0  0  0  0  0  0  0
    3.4069   -0.8004    0.0000 C   0  0  0  0  0  0  0  0  0
    2.2800   -0.4985    0.0000 C   0  0  0  0  0  0  0  0  0
    3.1050   -1.9274    0.0000 C   0  0  0  0  0  0  0  0  0
    1.2635   -0.3879    0.0000 C   0  0  0  0  0  0  0  0  0
   -0.1654   -1.2129    0.0000 C   0  0  0  0  0  0  0  0  0
   -0.8799   -1.6254    0.0000 C   0  0  0  0  0  0  0  0  0
   -1.5944   -1.2129    0.0000 C   0  0  0  0  0  0  0  0  0
   -1.5944   -0.3879    0.0000 C   0  0  0  0  0  0  0  0  0
   -0.8799    0.0246    0.0000 C   0  0  0  0  0  0  0  0  0
   -0.1654   -0.3879    0.0000 C   0  0  0  0  0  0  0  0  0
   -2.3088   -1.6254    0.0000 C   0  0  0  0  0  0  0  0  0
  1  2  2  0  0  0  0
  2  3  1  0  0  0  0
  2 10  1  0  0  0  0
  3  4  1  0  0  0  0
  3  9  1  0  0  0  0
  4  5  1  0  0  0  0
  5  6  1  0  0  0  0
  5  7  1  0  0  0  0
  5  8  1  0  0  0  0
 10 11  4  0  0  0  0
 10 15  4  0  0  0  0
 11 12  4  0  0  0  0
 12 13  4  0  0  0  0
 12 16  1  0  0  0  0
 13 14  4  0  0  0  0
 14 15  4  0  0  0  0
M  END
>  <Name_Molregno>
583033

>  <Dopamine transporter>
5

>  <Norepinephrine transporter>
5

>  <Serotonin transporter>
5

$$$$
583034
  Marvin  02231216192D 0   1.00000     0.00000     0

 17 18  0  0  1  0  0  0  0  0999 V2000
    1.9851    3.5854    0.0000 Cl  0  0  0  0  0  0  0  0  0
    1.9851    2.7604    0.0000 C   0  0  0  0  0  0  0  0  0
    2.6996    2.3479    0.0000 C   0  0  0  0  0  0  0  0  0
    2.6996    1.5229    0.0000 C   0  0  0  0  0  0  0  0  0
    1.9851    1.1104    0.0000 C   0  0  0  0  0  0  0  0  0
    1.2707    1.5229    0.0000 C   0  0  0  0  0  0  0  0  0
    1.2707    2.3479    0.0000 C   0  0  0  0  0  0  0  0  0
    3.4141    1.1104    0.0000 C   0  0  0  0  0  0  0  0  0
    4.1286    1.5229    0.0000 O   0  0  0  0  0  0  0  0  0
    3.4141    0.2854    0.0000 C   0  0  0  0  0  0  0  0  0
    4.1286   -0.1271    0.0000 N   0  0  0  0  0  0  0  0  0
    4.1286   -0.9521    0.0000 C   0  0  0  0  0  0  0  0  0
    4.7960   -1.4370    0.0000 C   0  0  0  0  0  0  0  0  0
    4.5411   -2.2217    0.0000 C   0  0  0  0  0  0  0  0  0
    3.7161   -2.2217    0.0000 C   0  0  0  0  0  0  0  0  0
    3.4611   -1.4370    0.0000 C   0  0  0  0  0  0  0  0  0
    2.6996   -0.1271    0.0000 C   0  0  0  0  0  0  0  0  0
  1  2  1  0  0  0  0
  2  3  4  0  0  0  0
  2  7  4  0  0  0  0
  3  4  4  0  0  0  0
  4  5  4  0  0  0  0
  4  8  1  0  0  0  0
  5  6  4  0  0  0  0
  6  7  4  0  0  0  0
  8  9  2  0  0  0  0
  8 10  1  0  0  0  0
 10 11  1  0  0  0  0
 10 17  1  0  0  0  0
 11 12  1  0  0  0  0
 12 13  1  0  0  0  0
 12 16  1  0  0  0  0
 13 14  1  0  0  0  0
 14 15  1  0  0  0  0
 15 16  1  0  0  0  0
M  END
>  <Name_Molregno>
583034

>  <Dopamine transporter>
5.66

>  <Norepinephrine transporter>
5.24

>  <Serotonin transporter>
5

$$$$
583041
  Marvin  02231216192D 0   1.00000     0.00000     0

 16 16  0  0  1  0  0  0  0  0999 V2000
    0.0592    0.5271    0.0000 Cl  0  0  0  0  0  0  0  0  0
    0.7736    0.1146    0.0000 C   0  0  0  0  0  0  0  0  0
    1.4881    0.5271    0.0000 C   0  0  0  0  0  0  0  0  0
    2.2026    0.1146    0.0000 C   0  0  0  0  0  0  0  0  0
    2.2026   -0.7104    0.0000 C   0  0  0  0  0  0  0  0  0
    1.4881   -1.1229    0.0000 C   0  0  0  0  0  0  0  0  0
    0.7736   -0.7104    0.0000 C   0  0  0  0  0  0  0  0  0
    2.9170   -1.1229    0.0000 C   0  0  0  0  0  0  0  0  0
    2.9170   -1.9479    0.0000 O   0  0  0  0  0  0  0  0  0
    3.6315   -0.7104    0.0000 C   0  0  0  0  0  0  0  0  0
    4.3460   -1.1229    0.0000 N   0  0  0  0  0  0  0  0  0
    5.0605   -0.7104    0.0000 C   0  0  0  0  0  0  0  0  0
    5.7749   -0.2979    0.0000 C   0  0  0  0  0  0  0  0  0
    5.4730   -1.4248    0.0000 C   0  0  0  0  0  0  0  0  0
    4.6480    0.0041    0.0000 C   0  0  0  0  0  0  0  0  0
    3.6315    0.1146    0.0000 C   0  0  0  0  0  0  0  0  0
  1  2  1  0  0  0  0
  2  3  4  0  0  0  0
  2  7  4  0  0  0  0
  3  4  4  0  0  0  0
  4  5  4  0  0  0  0
  5  6  4  0  0  0  0
  5  8  1  0  0  0  0
  6  7  4  0  0  0  0
  8  9  2  0  0  0  0
  8 10  1  0  0  0  0
 10 11  1  0  0  0  0
 10 16  1  0  0  0  0
 11 12  1  0  0  0  0
 12 13  1  0  0  0  0
 12 14  1  0  0  0  0
 12 15  1  0  0  0  0
M  END
>  <Name_Molregno>
583041

>  <Dopamine transporter>
5.66

>  <Norepinephrine transporter>
5

>  <Serotonin transporter>
5

$$$$
583042
  Marvin  02231216192D 0   1.00000     0.00000     0

 16 16  0  0  1  0  0  0  0  0999 V2000
    0.0592    0.5271    0.0000 Br  0  0  0  0  0  0  0  0  0
    0.7736    0.1146    0.0000 C   0  0  0  0  0  0  0  0  0
    1.4881    0.5271    0.0000 C   0  0  0  0  0  0  0  0  0
    2.2026    0.1146    0.0000 C   0  0  0  0  0  0  0  0  0
    2.2026   -0.7104    0.0000 C   0  0  0  0  0  0  0  0  0
    1.4881   -1.1229    0.0000 C   0  0  0  0  0  0  0  0  0
    0.7736   -0.7104    0.0000 C   0  0  0  0  0  0  0  0  0
    2.9170   -1.1229    0.0000 C   0  0  0  0  0  0  0  0  0
    2.9170   -1.9479    0.0000 O   0  0  0  0  0  0  0  0  0
    3.6315   -0.7104    0.0000 C   0  0  0  0  0  0  0  0  0
    4.3460   -1.1229    0.0000 N   0  0  0  0  0  0  0  0  0
    5.0605   -0.7104    0.0000 C   0  0  0  0  0  0  0  0  0
    5.7749   -0.2979    0.0000 C   0  0  0  0  0  0  0  0  0
    5.4730   -1.4248    0.0000 C   0  0  0  0  0  0  0  0  0
    4.6480    0.0041    0.0000 C   0  0  0  0  0  0  0  0  0
    3.6315    0.1146    0.0000 C   0  0  0  0  0  0  0  0  0
  1  2  1  0  0  0  0
  2  3  4  0  0  0  0
  2  7  4  0  0  0  0
  3  4  4  0  0  0  0
  4  5  4  0  0  0  0
  5  6  4  0  0  0  0
  5  8  1  0  0  0  0
  6  7  4  0  0  0  0
  8  9  2  0  0  0  0
  8 10  1  0  0  0  0
 10 11  1  0  0  0  0
 10 16  1  0  0  0  0
 11 12  1  0  0  0  0
 12 13  1  0  0  0  0
 12 14  1  0  0  0  0
 12 15  1  0  0  0  0
M  END
>  <Name_Molregno>
583042

>  <Dopamine transporter>
5.72

>  <Norepinephrine transporter>
5

>  <Serotonin transporter>
5.38

$$$$
583043
  Marvin  02231216192D 0   1.00000     0.00000     0

 16 16  0  0  1  0  0  0  0  0999 V2000
    0.6116   -2.6341    0.0000 O   0  0  0  0  0  0  0  0  0
    0.6116   -1.8091    0.0000 C   0  0  0  0  0  0  0  0  0
    1.3261   -1.3966    0.0000 C   0  0  0  0  0  0  0  0  0
    2.0406   -1.8091    0.0000 N   0  0  0  0  0  0  0  0  0
    2.7550   -1.3966    0.0000 C   0  0  0  0  0  0  0  0  0
    3.4695   -0.9841    0.0000 C   0  0  0  0  0  0  0  0  0
    2.3425   -0.6821    0.0000 C   0  0  0  0  0  0  0  0  0
    3.1675   -2.1110    0.0000 C   0  0  0  0  0  0  0  0  0
    1.3261   -0.5716    0.0000 C   0  0  0  0  0  0  0  0  0
   -0.1028   -1.3966    0.0000 C   0  0  0  0  0  0  0  0  0
   -0.8173   -1.8091    0.0000 C   0  0  0  0  0  0  0  0  0
   -1.5318   -1.3966    0.0000 C   0  0  0  0  0  0  0  0  0
   -1.5318   -0.5716    0.0000 C   0  0  0  0  0  0  0  0  0
   -0.8173   -0.1591    0.0000 C   0  0  0  0  0  0  0  0  0
   -0.1028   -0.5716    0.0000 C   0  0  0  0  0  0  0  0  0
   -2.2463   -0.1591    0.0000 C   0  0  0  0  0  0  0  0  0
  1  2  2  0  0  0  0
  2  3  1  0  0  0  0
  2 10  1  0  0  0  0
  3  4  1  0  0  0  0
  3  9  1  0  0  0  0
  4  5  1  0  0  0  0
  5  6  1  0  0  0  0
  5  7  1  0  0  0  0
  5  8  1  0  0  0  0
 10 11  4  0  0  0  0
 10 15  4  0  0  0  0
 11 12  4  0  0  0  0
 12 13  4  0  0  0  0
 13 14  4  0  0  0  0
 13 16  1  0  0  0  0
 14 15  4  0  0  0  0
M  END
>  <Name_Molregno>
583043

>  <Dopamine transporter>
5

>  <Norepinephrine transporter>
5.16

>  <Serotonin transporter>
5

$$$$
583044
  Marvin  02231216192D 0   1.00000     0.00000     0

 18 18  0  0  1  0  0  0  0  0999 V2000
    4.8174   -0.3087    0.0000 Cl  0  0  0  0  0  0  0  0  0
    4.1030    0.1038    0.0000 C   0  0  0  0  0  0  0  0  0
    3.3885   -0.3087    0.0000 C   0  0  0  0  0  0  0  0  0
    2.6740    0.1038    0.0000 C   0  0  0  0  0  0  0  0  0
    2.6740    0.9288    0.0000 C   0  0  0  0  0  0  0  0  0
    3.3885    1.3413    0.0000 C   0  0  0  0  0  0  0  0  0
    4.1030    0.9288    0.0000 C   0  0  0  0  0  0  0  0  0
    4.8174    1.3413    0.0000 Cl  0  0  0  0  0  0  0  0  0
    1.9596   -0.3087    0.0000 C   0  0  0  0  0  0  0  0  0
    1.2451    0.1038    0.0000 O   0  0  0  0  0  0  0  0  0
    1.9596   -1.1337    0.0000 C   0  0  0  0  0  0  0  0  0
    1.2451   -1.5462    0.0000 N   0  0  0  0  0  0  0  0  0
    1.2451   -2.3712    0.0000 C   0  0  0  0  0  0  0  0  0
    1.2451   -3.1962    0.0000 C   0  0  0  0  0  0  0  0  0
    0.4201   -2.3712    0.0000 C   0  0  0  0  0  0  0  0  0
    2.0701   -2.3712    0.0000 C   0  0  0  0  0  0  0  0  0
    2.6740   -1.5462    0.0000 C   0  0  0  0  0  0  0  0  0
    2.6740   -2.3712    0.0000 C   0  0  0  0  0  0  0  0  0
  1  2  1  0  0  0  0
  2  3  4  0  0  0  0
  2  7  4  0  0  0  0
  3  4  4  0  0  0  0
  4  5  4  0  0  0  0
  4  9  1  0  0  0  0
  5  6  4  0  0  0  0
  6  7  4  0  0  0  0
  7  8  1  0  0  0  0
  9 10  2  0  0  0  0
  9 11  1  0  0  0  0
 11 12  1  0  0  0  0
 11 17  1  0  0  0  0
 12 13  1  0  0  0  0
 13 14  1  0  0  0  0
 13 15  1  0  0  0  0
 13 16  1  0  0  0  0
 17 18  1  0  0  0  0
M  END
>  <Name_Molregno>
583044

>  <Dopamine transporter>
6.56

>  <Norepinephrine transporter>
5.65

>  <Serotonin transporter>
6.07

$$$$
591110
  Marvin  02231216192D 0   1.00000     0.00000     0

 27 31  0  0  1  0  0  0  0  0999 V2000
    0.4188    1.2437    0.0000 O   0  0  0  0  0  0  0  0  0
   -0.3658    0.9887    0.0000 C   0  0  0  0  0  0  0  0  0
   -0.3658    0.1637    0.0000 C   0  0  0  0  0  0  0  0  0
    0.4188   -0.0912    0.0000 O   0  0  0  0  0  0  0  0  0
    0.9037    0.5762    0.0000 C   0  0  0  0  0  0  0  0  0
   -1.0803   -0.2488    0.0000 C   0  0  0  0  0  0  0  0  0
   -1.7947    0.1637    0.0000 C   0  0  0  0  0  0  0  0  0
   -2.5092   -0.2488    0.0000 C   0  0  0  0  0  0  0  0  0
   -3.2237    0.1637    0.0000 C   0  0  0  0  0  0  0  0  0
   -3.9382   -0.2488    0.0000 N   0  0  0  0  0  0  0  0  0
   -4.6526    0.1637    0.0000 C   0  0  0  0  0  0  0  0  0
   -4.6526    0.9887    0.0000 C   0  0  0  0  0  0  0  0  0
   -3.9382    1.4012    0.0000 C   0  0  0  0  0  0  0  0  0
   -3.9382    2.2262    0.0000 C   0  0  0  0  0  0  0  0  0
   -3.2237    2.6387    0.0000 C   0  0  0  0  0  0  0  0  0
   -3.2237    3.4637    0.0000 C   0  0  0  0  0  0  0  0  0
   -3.9382    3.8762    0.0000 O   0  0  0  0  0  0  0  0  0
   -2.5092    3.8762    0.0000 C   0  0  0  0  0  0  0  0  0
   -2.5092    2.2262    0.0000 C   0  0  0  0  0  0  0  0  0
   -2.5092    1.4012    0.0000 C   0  0  0  0  0  0  0  0  0
   -3.2237    0.9887    0.0000 C   0  0  0  0  0  0  0  0  0
   -1.7947    0.9887    0.0000 C   0  0  0  0  0  0  0  0  0
   -1.0803    1.4012    0.0000 C   0  0  0  0  0  0  0  0  0
   -1.7947    2.6387    0.0000 C   0  0  0  0  0  0  0  0  0
   -1.0803    2.2262    0.0000 O   0  0  0  0  0  0  0  0  0
   -1.7947    3.4637    0.0000 C   0  0  0  0  0  0  0  0  0
   -3.9382   -1.0738    0.0000 C   0  0  0  0  0  0  0  0  0
  1  2  1  0  0  0  0
  1  5  1  0  0  0  0
  2  3  4  0  0  0  0
  2 23  4  0  0  0  0
  3  4  1  0  0  0  0
  3  6  4  0  0  0  0
  4  5  1  0  0  0  0
  6  7  4  0  0  0  0
  7  8  1  0  0  0  0
  7 22  4  0  0  0  0
  8  9  1  0  0  0  0
  9 10  1  0  0  0  0
  9 21  1  0  0  0  0
 10 11  1  0  0  0  0
 10 27  1  0  0  0  0
 11 12  1  0  0  0  0
 12 13  1  0  0  0  0
 13 14  4  0  0  0  0
 13 21  4  0  0  0  0
 14 15  4  0  0  0  0
 15 16  1  0  0  0  0
 15 19  4  0  0  0  0
 16 17  2  0  0  0  0
 16 18  1  0  0  0  0
 19 20  4  0  0  0  0
 19 24  1  0  0  0  0
 20 21  4  0  0  0  0
 20 22  1  0  0  0  0
 22 23  4  0  0  0  0
 24 25  2  0  0  0  0
 24 26  1  0  0  0  0
M  END
>  <Name_Molregno>
591110

>  <5-HT1B>
7

>  <5-HT1D>
7.31

>  <5-HT1E>
5

>  <5-HT2A>
6.08

>  <5-HT2C>
5.97

>  <5-HT3>
5

>  <5-HT5>
5.65

>  <5-HT6>
6.59

>  <5-HT7>
7.17

>  <Alpha-1A>
8.7

>  <Alpha-1B>
5.92

>  <Alpha-2A>
5.89

>  <Alpha-2B>
6.6

>  <Alpha-2C>
6.74

>  <Beta-1>
5.07

>  <Beta-2>
5

>  <DOPAMINE D1>
6.05

>  <DOPAMINE D2>
6.07

>  <DOPAMINE D3>
6.51

>  <DOPAMINE D4>
6.58

>  <DOPAMINE D5>
5.62

>  <Dopamine transporter>
5

>  <HISTAMINE H1>
5

>  <HISTAMINE H2>
6.17

>  <HISTAMINE H3>
5

>  <HISTAMINE H4>
5

>  <Muscarinic acetylcholine receptor M1>
5

>  <Muscarinic acetylcholine receptor M2>
5

>  <Muscarinic acetylcholine receptor M3>
5

>  <Muscarinic acetylcholine receptor M4>
5

>  <Norepinephrine transporter>
5

>  <Serotonin transporter>
6.61

$$$$
592228
  Marvin  02231216192D 0   1.00000     0.00000     0

 21 23  0  0  0  0  0  0  0  0999 V2000
   -0.0125   -0.4699    0.0000 S   0  0  0  0  0  0  0  0  0
    0.7721   -0.7249    0.0000 O   0  0  0  0  0  0  0  0  0
   -0.7971   -0.2150    0.0000 O   0  0  0  0  0  0  0  0  0
   -0.2674   -1.2546    0.0000 C   0  0  0  0  0  0  0  0  0
    0.2846   -1.8677    0.0000 C   0  0  0  0  0  0  0  0  0
    0.0296   -2.6523    0.0000 C   0  0  0  0  0  0  0  0  0
   -0.7773   -2.8238    0.0000 C   0  0  0  0  0  0  0  0  0
   -1.3294   -2.2107    0.0000 C   0  0  0  0  0  0  0  0  0
   -1.0744   -1.4261    0.0000 C   0  0  0  0  0  0  0  0  0
    0.2424    0.3147    0.0000 C   0  0  0  0  0  0  0  0  0
    1.0271    0.5696    0.0000 C   0  0  0  0  0  0  0  0  0
    1.0271    1.3946    0.0000 C   0  0  0  0  0  0  0  0  0
    0.2424    1.6496    0.0000 N   0  0  0  0  0  0  0  0  0
   -0.2425    0.9821    0.0000 C   0  0  0  0  0  0  0  0  0
    1.7415    1.8071    0.0000 C   0  0  0  0  0  0  0  0  0
    2.4560    1.3946    0.0000 C   0  0  0  0  0  0  0  0  0
    2.4560    0.5696    0.0000 C   0  0  0  0  0  0  0  0  0
    1.7415    0.1571    0.0000 C   0  0  0  0  0  0  0  0  0
    1.7415   -0.6679    0.0000 C   0  0  0  0  0  0  0  0  0
    1.0271   -1.0804    0.0000 C   0  0  0  0  0  0  0  0  0
    1.0271   -1.9054    0.0000 N   0  0  0  0  0  0  0  0  0
  1  2  2  0  0  0  0
  1  3  2  0  0  0  0
  1  4  1  0  0  0  0
  1 10  1  0  0  0  0
  4  5  4  0  0  0  0
  4  9  4  0  0  0  0
  5  6  4  0  0  0  0
  6  7  4  0  0  0  0
  7  8  4  0  0  0  0
  8  9  4  0  0  0  0
 10 11  4  0  0  0  0
 10 14  4  0  0  0  0
 11 12  4  0  0  0  0
 11 18  4  0  0  0  0
 12 13  4  0  0  0  0
 12 15  4  0  0  0  0
 13 14  4  0  0  0  0
 15 16  4  0  0  0  0
 16 17  4  0  0  0  0
 17 18  4  0  0  0  0
 18 19  1  0  0  0  0
 19 20  1  0  0  0  0
 20 21  1  0  0  0  0
M  STY  1   1 DAT
M  SAL   1  1  13
M  SDT   1 MRV_IMPLICIT_H                                        
M  SDD   1     0.0000    0.0000    DR    ALL  0       0  
M  SED   1 IMPL_H1
M  END
>  <Name_Molregno>
592228

>  <Norepinephrine transporter>
6.1

$$$$
592229
  Marvin  02231216192D 0   1.00000     0.00000     0

 22 24  0  0  0  0  0  0  0  0999 V2000
   -1.3703   -0.5135    0.0000 S   0  0  0  0  0  0  0  0  0
   -0.5857   -0.7684    0.0000 O   0  0  0  0  0  0  0  0  0
   -2.1549   -0.2586    0.0000 O   0  0  0  0  0  0  0  0  0
   -1.6252   -1.2981    0.0000 C   0  0  0  0  0  0  0  0  0
   -1.0732   -1.9112    0.0000 C   0  0  0  0  0  0  0  0  0
   -1.3281   -2.6958    0.0000 C   0  0  0  0  0  0  0  0  0
   -2.1351   -2.8674    0.0000 C   0  0  0  0  0  0  0  0  0
   -2.6871   -2.2543    0.0000 C   0  0  0  0  0  0  0  0  0
   -2.4322   -1.4697    0.0000 C   0  0  0  0  0  0  0  0  0
   -1.1154    0.2711    0.0000 C   0  0  0  0  0  0  0  0  0
   -0.3307    0.5261    0.0000 C   0  0  0  0  0  0  0  0  0
   -0.3307    1.3511    0.0000 C   0  0  0  0  0  0  0  0  0
   -1.1154    1.6060    0.0000 N   0  0  0  0  0  0  0  0  0
   -1.6003    0.9386    0.0000 C   0  0  0  0  0  0  0  0  0
    0.3837    1.7636    0.0000 C   0  0  0  0  0  0  0  0  0
    1.0982    1.3511    0.0000 C   0  0  0  0  0  0  0  0  0
    1.0982    0.5261    0.0000 C   0  0  0  0  0  0  0  0  0
    0.3837    0.1136    0.0000 C   0  0  0  0  0  0  0  0  0
    0.3837   -0.7114    0.0000 C   0  0  0  0  0  0  0  0  0
    1.0982   -1.1239    0.0000 C   0  0  0  0  0  0  0  0  0
    1.0982   -1.9489    0.0000 N   0  0  0  0  0  0  0  0  0
    1.8127   -2.3614    0.0000 C   0  0  0  0  0  0  0  0  0
  1  2  2  0  0  0  0
  1  3  2  0  0  0  0
  1  4  1  0  0  0  0
  1 10  1  0  0  0  0
  4  5  4  0  0  0  0
  4  9  4  0  0  0  0
  5  6  4  0  0  0  0
  6  7  4  0  0  0  0
  7  8  4  0  0  0  0
  8  9  4  0  0  0  0
 10 11  4  0  0  0  0
 10 14  4  0  0  0  0
 11 12  4  0  0  0  0
 11 18  4  0  0  0  0
 12 13  4  0  0  0  0
 12 15  4  0  0  0  0
 13 14  4  0  0  0  0
 15 16  4  0  0  0  0
 16 17  4  0  0  0  0
 17 18  4  0  0  0  0
 18 19  1  0  0  0  0
 19 20  1  0  0  0  0
 20 21  1  0  0  0  0
 21 22  1  0  0  0  0
M  STY  1   1 DAT
M  SAL   1  1  13
M  SDT   1 MRV_IMPLICIT_H                                        
M  SDD   1     0.0000    0.0000    DR    ALL  0       0  
M  SED   1 IMPL_H1
M  END
>  <Name_Molregno>
592229

>  <5-HT2A>
6.56

>  <Norepinephrine transporter>
6.51

$$$$
592241
  Marvin  02231216192D 0   1.00000     0.00000     0

 23 25  0  0  0  0  0  0  0  0999 V2000
    0.1716   -0.8406    0.0000 S   0  0  0  0  0  0  0  0  0
    0.9786   -0.6691    0.0000 O   0  0  0  0  0  0  0  0  0
    0.0001   -0.0336    0.0000 O   0  0  0  0  0  0  0  0  0
    0.3431   -1.6476    0.0000 C   0  0  0  0  0  0  0  0  0
    1.1278   -1.9025    0.0000 C   0  0  0  0  0  0  0  0  0
    1.2993   -2.7095    0.0000 C   0  0  0  0  0  0  0  0  0
    0.6862   -3.2615    0.0000 C   0  0  0  0  0  0  0  0  0
   -0.0984   -3.0066    0.0000 C   0  0  0  0  0  0  0  0  0
   -0.2699   -2.1996    0.0000 C   0  0  0  0  0  0  0  0  0
   -0.6354   -1.0121    0.0000 C   0  0  0  0  0  0  0  0  0
   -1.2484   -0.4601    0.0000 C   0  0  0  0  0  0  0  0  0
   -1.9629   -0.8726    0.0000 C   0  0  0  0  0  0  0  0  0
   -1.7914   -1.6796    0.0000 N   0  0  0  0  0  0  0  0  0
   -0.9709   -1.7658    0.0000 C   0  0  0  0  0  0  0  0  0
   -2.6774   -0.4601    0.0000 C   0  0  0  0  0  0  0  0  0
   -2.6774    0.3649    0.0000 C   0  0  0  0  0  0  0  0  0
   -1.9629    0.7774    0.0000 C   0  0  0  0  0  0  0  0  0
   -1.2484    0.3649    0.0000 C   0  0  0  0  0  0  0  0  0
   -0.5340    0.7774    0.0000 C   0  0  0  0  0  0  0  0  0
    0.1805    0.3649    0.0000 C   0  0  0  0  0  0  0  0  0
    0.8950    0.7774    0.0000 N   0  0  0  0  0  0  0  0  0
    1.6094    0.3649    0.0000 C   0  0  0  0  0  0  0  0  0
    1.6094   -0.4601    0.0000 C   0  0  0  0  0  0  0  0  0
  1  2  2  0  0  0  0
  1  3  2  0  0  0  0
  1  4  1  0  0  0  0
  1 10  1  0  0  0  0
  4  5  4  0  0  0  0
  4  9  4  0  0  0  0
  5  6  4  0  0  0  0
  6  7  4  0  0  0  0
  7  8  4  0  0  0  0
  8  9  4  0  0  0  0
 10 11  4  0  0  0  0
 10 14  4  0  0  0  0
 11 12  4  0  0  0  0
 11 18  4  0  0  0  0
 12 13  4  0  0  0  0
 12 15  4  0  0  0  0
 13 14  4  0  0  0  0
 15 16  4  0  0  0  0
 16 17  4  0  0  0  0
 17 18  4  0  0  0  0
 18 19  1  0  0  0  0
 19 20  1  0  0  0  0
 20 21  1  0  0  0  0
 21 22  1  0  0  0  0
 22 23  1  0  0  0  0
M  STY  1   1 DAT
M  SAL   1  1  13
M  SDT   1 MRV_IMPLICIT_H                                        
M  SDD   1     0.0000    0.0000    DR    ALL  0       0  
M  SED   1 IMPL_H1
M  END
>  <Name_Molregno>
592241

>  <5-HT2A>
6.41

>  <Norepinephrine transporter>
7.11

$$$$
592242
  Marvin  02231216192D 0   1.00000     0.00000     0

 24 26  0  0  0  0  0  0  0  0999 V2000
   -0.2843   -1.6906    0.0000 S   0  0  0  0  0  0  0  0  0
    0.3288   -1.1386    0.0000 O   0  0  0  0  0  0  0  0  0
   -0.8974   -2.2426    0.0000 O   0  0  0  0  0  0  0  0  0
    0.2677   -2.3037    0.0000 C   0  0  0  0  0  0  0  0  0
    1.0747   -2.1322    0.0000 C   0  0  0  0  0  0  0  0  0
    1.6267   -2.7453    0.0000 C   0  0  0  0  0  0  0  0  0
    1.3718   -3.5299    0.0000 C   0  0  0  0  0  0  0  0  0
    0.5648   -3.7014    0.0000 C   0  0  0  0  0  0  0  0  0
    0.0128   -3.0883    0.0000 C   0  0  0  0  0  0  0  0  0
   -0.8364   -1.0775    0.0000 C   0  0  0  0  0  0  0  0  0
   -0.6648   -0.2705    0.0000 C   0  0  0  0  0  0  0  0  0
   -1.3793    0.1420    0.0000 C   0  0  0  0  0  0  0  0  0
   -1.9924   -0.4101    0.0000 N   0  0  0  0  0  0  0  0  0
   -1.6568   -1.1638    0.0000 C   0  0  0  0  0  0  0  0  0
   -1.3793    0.9670    0.0000 C   0  0  0  0  0  0  0  0  0
   -0.6648    1.3795    0.0000 C   0  0  0  0  0  0  0  0  0
    0.0496    0.9670    0.0000 C   0  0  0  0  0  0  0  0  0
    0.0496    0.1420    0.0000 C   0  0  0  0  0  0  0  0  0
    0.7641   -0.2705    0.0000 C   0  0  0  0  0  0  0  0  0
    1.4786    0.1420    0.0000 C   0  0  0  0  0  0  0  0  0
    2.1931   -0.2705    0.0000 N   0  0  0  0  0  0  0  0  0
    2.9075    0.1420    0.0000 C   0  0  0  0  0  0  0  0  0
    3.6220   -0.2705    0.0000 C   0  0  0  0  0  0  0  0  0
    4.3365    0.1420    0.0000 C   0  0  0  0  0  0  0  0  0
  1  2  2  0  0  0  0
  1  3  2  0  0  0  0
  1  4  1  0  0  0  0
  1 10  1  0  0  0  0
  4  5  4  0  0  0  0
  4  9  4  0  0  0  0
  5  6  4  0  0  0  0
  6  7  4  0  0  0  0
  7  8  4  0  0  0  0
  8  9  4  0  0  0  0
 10 11  4  0  0  0  0
 10 14  4  0  0  0  0
 11 12  4  0  0  0  0
 11 18  4  0  0  0  0
 12 13  4  0  0  0  0
 12 15  4  0  0  0  0
 13 14  4  0  0  0  0
 15 16  4  0  0  0  0
 16 17  4  0  0  0  0
 17 18  4  0  0  0  0
 18 19  1  0  0  0  0
 19 20  1  0  0  0  0
 20 21  1  0  0  0  0
 21 22  1  0  0  0  0
 22 23  1  0  0  0  0
 23 24  1  0  0  0  0
M  STY  1   1 DAT
M  SAL   1  1  13
M  SDT   1 MRV_IMPLICIT_H                                        
M  SDD   1     0.0000    0.0000    DR    ALL  0       0  
M  SED   1 IMPL_H1
M  END
>  <Name_Molregno>
592242

>  <5-HT2A>
6.44

>  <Norepinephrine transporter>
6.31

$$$$
592252
  Marvin  02231216192D 0   1.00000     0.00000     0

 24 26  0  0  0  0  0  0  0  0999 V2000
    0.7658   -1.0143    0.0000 S   0  0  0  0  0  0  0  0  0
    1.5727   -0.8428    0.0000 O   0  0  0  0  0  0  0  0  0
    0.5942   -0.2073    0.0000 O   0  0  0  0  0  0  0  0  0
    0.9373   -1.8213    0.0000 C   0  0  0  0  0  0  0  0  0
    1.7219   -2.0762    0.0000 C   0  0  0  0  0  0  0  0  0
    1.8934   -2.8832    0.0000 C   0  0  0  0  0  0  0  0  0
    1.2804   -3.4352    0.0000 C   0  0  0  0  0  0  0  0  0
    0.4957   -3.1803    0.0000 C   0  0  0  0  0  0  0  0  0
    0.3242   -2.3733    0.0000 C   0  0  0  0  0  0  0  0  0
   -0.0412   -1.1858    0.0000 C   0  0  0  0  0  0  0  0  0
   -0.6543   -0.6338    0.0000 C   0  0  0  0  0  0  0  0  0
   -1.3688   -1.0463    0.0000 C   0  0  0  0  0  0  0  0  0
   -1.1972   -1.8533    0.0000 N   0  0  0  0  0  0  0  0  0
   -0.3768   -1.9395    0.0000 C   0  0  0  0  0  0  0  0  0
   -2.0832   -0.6338    0.0000 C   0  0  0  0  0  0  0  0  0
   -2.0832    0.1912    0.0000 C   0  0  0  0  0  0  0  0  0
   -1.3688    0.6037    0.0000 C   0  0  0  0  0  0  0  0  0
   -0.6543    0.1912    0.0000 C   0  0  0  0  0  0  0  0  0
    0.0602    0.6037    0.0000 C   0  0  0  0  0  0  0  0  0
    0.7746    0.1912    0.0000 C   0  0  0  0  0  0  0  0  0
    1.4891    0.6037    0.0000 N   0  0  0  0  0  0  0  0  0
    2.2036    0.1912    0.0000 C   0  0  0  0  0  0  0  0  0
    2.9181    0.6037    0.0000 C   0  0  0  0  0  0  0  0  0
    2.2036   -0.6338    0.0000 C   0  0  0  0  0  0  0  0  0
  1  2  2  0  0  0  0
  1  3  2  0  0  0  0
  1  4  1  0  0  0  0
  1 10  1  0  0  0  0
  4  5  4  0  0  0  0
  4  9  4  0  0  0  0
  5  6  4  0  0  0  0
  6  7  4  0  0  0  0
  7  8  4  0  0  0  0
  8  9  4  0  0  0  0
 10 11  4  0  0  0  0
 10 14  4  0  0  0  0
 11 12  4  0  0  0  0
 11 18  4  0  0  0  0
 12 13  4  0  0  0  0
 12 15  4  0  0  0  0
 13 14  4  0  0  0  0
 15 16  4  0  0  0  0
 16 17  4  0  0  0  0
 17 18  4  0  0  0  0
 18 19  1  0  0  0  0
 19 20  1  0  0  0  0
 20 21  1  0  0  0  0
 21 22  1  0  0  0  0
 22 23  1  0  0  0  0
 22 24  1  0  0  0  0
M  STY  1   1 DAT
M  SAL   1  1  13
M  SDT   1 MRV_IMPLICIT_H                                        
M  SDD   1     0.0000    0.0000    DR    ALL  0       0  
M  SED   1 IMPL_H1
M  END
>  <Name_Molregno>
592252

>  <5-HT2A>
6.96

>  <Norepinephrine transporter>
7.6

$$$$
592253
  Marvin  02231216192D 0   1.00000     0.00000     0

 26 29  0  0  0  0  0  0  0  0999 V2000
    0.4014    0.3332    0.0000 S   0  0  0  0  0  0  0  0  0
    1.1860    0.0783    0.0000 O   0  0  0  0  0  0  0  0  0
   -0.3832    0.5881    0.0000 O   0  0  0  0  0  0  0  0  0
    0.1465   -0.4514    0.0000 C   0  0  0  0  0  0  0  0  0
    0.6985   -1.0645    0.0000 C   0  0  0  0  0  0  0  0  0
    0.4436   -1.8491    0.0000 C   0  0  0  0  0  0  0  0  0
   -0.3634   -2.0207    0.0000 C   0  0  0  0  0  0  0  0  0
   -0.9154   -1.4076    0.0000 C   0  0  0  0  0  0  0  0  0
   -0.6605   -0.6229    0.0000 C   0  0  0  0  0  0  0  0  0
    0.6563    1.1178    0.0000 C   0  0  0  0  0  0  0  0  0
    1.4410    1.3728    0.0000 C   0  0  0  0  0  0  0  0  0
    1.4410    2.1978    0.0000 C   0  0  0  0  0  0  0  0  0
    0.6563    2.4527    0.0000 N   0  0  0  0  0  0  0  0  0
    0.1714    1.7853    0.0000 C   0  0  0  0  0  0  0  0  0
    2.1554    2.6103    0.0000 C   0  0  0  0  0  0  0  0  0
    2.8699    2.1978    0.0000 C   0  0  0  0  0  0  0  0  0
    2.8699    1.3728    0.0000 C   0  0  0  0  0  0  0  0  0
    2.1554    0.9603    0.0000 C   0  0  0  0  0  0  0  0  0
    2.1554    0.1353    0.0000 C   0  0  0  0  0  0  0  0  0
    1.4410   -0.2772    0.0000 C   0  0  0  0  0  0  0  0  0
    1.4410   -1.1022    0.0000 N   0  0  0  0  0  0  0  0  0
    2.1554   -1.5147    0.0000 C   0  0  0  0  0  0  0  0  0
    2.9091   -1.1792    0.0000 C   0  0  0  0  0  0  0  0  0
    3.4611   -1.7923    0.0000 C   0  0  0  0  0  0  0  0  0
    3.0486   -2.5067    0.0000 C   0  0  0  0  0  0  0  0  0
    2.2417   -2.3352    0.0000 C   0  0  0  0  0  0  0  0  0
  1  2  2  0  0  0  0
  1  3  2  0  0  0  0
  1  4  1  0  0  0  0
  1 10  1  0  0  0  0
  4  5  4  0  0  0  0
  4  9  4  0  0  0  0
  5  6  4  0  0  0  0
  6  7  4  0  0  0  0
  7  8  4  0  0  0  0
  8  9  4  0  0  0  0
 10 11  4  0  0  0  0
 10 14  4  0  0  0  0
 11 12  4  0  0  0  0
 11 18  4  0  0  0  0
 12 13  4  0  0  0  0
 12 15  4  0  0  0  0
 13 14  4  0  0  0  0
 15 16  4  0  0  0  0
 16 17  4  0  0  0  0
 17 18  4  0  0  0  0
 18 19  1  0  0  0  0
 19 20  1  0  0  0  0
 20 21  1  0  0  0  0
 21 22  1  0  0  0  0
 22 23  1  0  0  0  0
 22 26  1  0  0  0  0
 23 24  1  0  0  0  0
 24 25  1  0  0  0  0
 25 26  1  0  0  0  0
M  STY  1   1 DAT
M  SAL   1  1  13
M  SDT   1 MRV_IMPLICIT_H                                        
M  SDD   1     0.0000    0.0000    DR    ALL  0       0  
M  SED   1 IMPL_H1
M  END
>  <Name_Molregno>
592253

>  <5-HT2A>
7.72

>  <Norepinephrine transporter>
6.37

$$$$
592270
  Marvin  02231216192D 0   1.00000     0.00000     0

 23 25  0  0  0  0  0  0  0  0999 V2000
   -1.3850   -0.5234    0.0000 S   0  0  0  0  0  0  0  0  0
   -0.6004   -0.7783    0.0000 O   0  0  0  0  0  0  0  0  0
   -2.1697   -0.2684    0.0000 O   0  0  0  0  0  0  0  0  0
   -1.6400   -1.3080    0.0000 C   0  0  0  0  0  0  0  0  0
   -1.0880   -1.9211    0.0000 C   0  0  0  0  0  0  0  0  0
   -1.3429   -2.7057    0.0000 C   0  0  0  0  0  0  0  0  0
   -2.1499   -2.8772    0.0000 C   0  0  0  0  0  0  0  0  0
   -2.7019   -2.2641    0.0000 C   0  0  0  0  0  0  0  0  0
   -2.4470   -1.4795    0.0000 C   0  0  0  0  0  0  0  0  0
   -1.1301    0.2613    0.0000 C   0  0  0  0  0  0  0  0  0
   -0.3455    0.5162    0.0000 C   0  0  0  0  0  0  0  0  0
   -0.3455    1.3412    0.0000 C   0  0  0  0  0  0  0  0  0
   -1.1301    1.5961    0.0000 N   0  0  0  0  0  0  0  0  0
   -1.6150    0.9287    0.0000 C   0  0  0  0  0  0  0  0  0
    0.3690    1.7537    0.0000 C   0  0  0  0  0  0  0  0  0
    1.0835    1.3412    0.0000 C   0  0  0  0  0  0  0  0  0
    1.0835    0.5162    0.0000 C   0  0  0  0  0  0  0  0  0
    0.3690    0.1037    0.0000 C   0  0  0  0  0  0  0  0  0
    0.3690   -0.7213    0.0000 C   0  0  0  0  0  0  0  0  0
    1.0835   -1.1338    0.0000 C   0  0  0  0  0  0  0  0  0
    1.0835   -1.9588    0.0000 N   0  0  0  0  0  0  0  0  0
    1.7979   -2.3713    0.0000 C   0  0  0  0  0  0  0  0  0
    0.3690   -2.3713    0.0000 C   0  0  0  0  0  0  0  0  0
  1  2  2  0  0  0  0
  1  3  2  0  0  0  0
  1  4  1  0  0  0  0
  1 10  1  0  0  0  0
  4  5  4  0  0  0  0
  4  9  4  0  0  0  0
  5  6  4  0  0  0  0
  6  7  4  0  0  0  0
  7  8  4  0  0  0  0
  8  9  4  0  0  0  0
 10 11  4  0  0  0  0
 10 14  4  0  0  0  0
 11 12  4  0  0  0  0
 11 18  4  0  0  0  0
 12 13  4  0  0  0  0
 12 15  4  0  0  0  0
 13 14  4  0  0  0  0
 15 16  4  0  0  0  0
 16 17  4  0  0  0  0
 17 18  4  0  0  0  0
 18 19  1  0  0  0  0
 19 20  1  0  0  0  0
 20 21  1  0  0  0  0
 21 22  1  0  0  0  0
 21 23  1  0  0  0  0
M  STY  1   1 DAT
M  SAL   1  1  13
M  SDT   1 MRV_IMPLICIT_H                                        
M  SDD   1     0.0000    0.0000    DR    ALL  0       0  
M  SED   1 IMPL_H1
M  END
>  <Name_Molregno>
592270

>  <5-HT2A>
6.58

>  <Norepinephrine transporter>
7.35

$$$$
592271
  Marvin  02231216192D 0   1.00000     0.00000     0

 24 26  0  0  0  0  0  0  0  0999 V2000
    0.8141   -0.9643    0.0000 S   0  0  0  0  0  0  0  0  0
    1.6211   -0.7928    0.0000 O   0  0  0  0  0  0  0  0  0
    0.6426   -0.1573    0.0000 O   0  0  0  0  0  0  0  0  0
    0.9857   -1.7713    0.0000 C   0  0  0  0  0  0  0  0  0
    1.7703   -2.0262    0.0000 C   0  0  0  0  0  0  0  0  0
    1.9418   -2.8332    0.0000 C   0  0  0  0  0  0  0  0  0
    1.3287   -3.3852    0.0000 C   0  0  0  0  0  0  0  0  0
    0.5441   -3.1303    0.0000 C   0  0  0  0  0  0  0  0  0
    0.3726   -2.3233    0.0000 C   0  0  0  0  0  0  0  0  0
    0.0072   -1.1358    0.0000 C   0  0  0  0  0  0  0  0  0
   -0.6059   -0.5838    0.0000 C   0  0  0  0  0  0  0  0  0
   -1.3204   -0.9963    0.0000 C   0  0  0  0  0  0  0  0  0
   -1.1489   -1.8033    0.0000 N   0  0  0  0  0  0  0  0  0
   -0.3284   -1.8895    0.0000 C   0  0  0  0  0  0  0  0  0
   -2.0349   -0.5838    0.0000 C   0  0  0  0  0  0  0  0  0
   -2.0349    0.2412    0.0000 C   0  0  0  0  0  0  0  0  0
   -1.3204    0.6537    0.0000 C   0  0  0  0  0  0  0  0  0
   -0.6059    0.2412    0.0000 C   0  0  0  0  0  0  0  0  0
    0.1085    0.6537    0.0000 C   0  0  0  0  0  0  0  0  0
    0.8230    0.2412    0.0000 C   0  0  0  0  0  0  0  0  0
    1.5375    0.6537    0.0000 N   0  0  0  0  0  0  0  0  0
    2.2519    0.2412    0.0000 C   0  0  0  0  0  0  0  0  0
    2.2519   -0.5838    0.0000 C   0  0  0  0  0  0  0  0  0
    1.5375    1.4787    0.0000 C   0  0  0  0  0  0  0  0  0
  1  2  2  0  0  0  0
  1  3  2  0  0  0  0
  1  4  1  0  0  0  0
  1 10  1  0  0  0  0
  4  5  4  0  0  0  0
  4  9  4  0  0  0  0
  5  6  4  0  0  0  0
  6  7  4  0  0  0  0
  7  8  4  0  0  0  0
  8  9  4  0  0  0  0
 10 11  4  0  0  0  0
 10 14  4  0  0  0  0
 11 12  4  0  0  0  0
 11 18  4  0  0  0  0
 12 13  4  0  0  0  0
 12 15  4  0  0  0  0
 13 14  4  0  0  0  0
 15 16  4  0  0  0  0
 16 17  4  0  0  0  0
 17 18  4  0  0  0  0
 18 19  1  0  0  0  0
 19 20  1  0  0  0  0
 20 21  1  0  0  0  0
 21 22  1  0  0  0  0
 21 24  1  0  0  0  0
 22 23  1  0  0  0  0
M  STY  1   1 DAT
M  SAL   1  1  13
M  SDT   1 MRV_IMPLICIT_H                                        
M  SDD   1     0.0000    0.0000    DR    ALL  0       0  
M  SED   1 IMPL_H1
M  END
>  <Name_Molregno>
592271

>  <5-HT2A>
6.65

>  <Norepinephrine transporter>
7.55

$$$$
592289
  Marvin  02231216192D 0   1.00000     0.00000     0

 25 28  0  0  0  0  0  0  0  0999 V2000
   -0.4821   -0.5524    0.0000 S   0  0  0  0  0  0  0  0  0
    0.3025   -0.8073    0.0000 O   0  0  0  0  0  0  0  0  0
   -1.2667   -0.2974    0.0000 O   0  0  0  0  0  0  0  0  0
   -0.7370   -1.3370    0.0000 C   0  0  0  0  0  0  0  0  0
   -0.1850   -1.9501    0.0000 C   0  0  0  0  0  0  0  0  0
   -0.4400   -2.7347    0.0000 C   0  0  0  0  0  0  0  0  0
   -1.2469   -2.9062    0.0000 C   0  0  0  0  0  0  0  0  0
   -1.7990   -2.2931    0.0000 C   0  0  0  0  0  0  0  0  0
   -1.5440   -1.5085    0.0000 C   0  0  0  0  0  0  0  0  0
   -0.2272    0.2323    0.0000 C   0  0  0  0  0  0  0  0  0
    0.5575    0.4872    0.0000 C   0  0  0  0  0  0  0  0  0
    0.5575    1.3122    0.0000 C   0  0  0  0  0  0  0  0  0
   -0.2272    1.5671    0.0000 N   0  0  0  0  0  0  0  0  0
   -0.7121    0.8997    0.0000 C   0  0  0  0  0  0  0  0  0
    1.2719    1.7247    0.0000 C   0  0  0  0  0  0  0  0  0
    1.9864    1.3122    0.0000 C   0  0  0  0  0  0  0  0  0
    1.9864    0.4872    0.0000 C   0  0  0  0  0  0  0  0  0
    1.2719    0.0747    0.0000 C   0  0  0  0  0  0  0  0  0
    1.2719   -0.7503    0.0000 C   0  0  0  0  0  0  0  0  0
    1.9864   -1.1628    0.0000 C   0  0  0  0  0  0  0  0  0
    1.9864   -1.9878    0.0000 N   0  0  0  0  0  0  0  0  0
    2.6538   -2.4727    0.0000 C   0  0  0  0  0  0  0  0  0
    2.3989   -3.2573    0.0000 C   0  0  0  0  0  0  0  0  0
    1.5739   -3.2573    0.0000 C   0  0  0  0  0  0  0  0  0
    1.3190   -2.4727    0.0000 C   0  0  0  0  0  0  0  0  0
  1  2  2  0  0  0  0
  1  3  2  0  0  0  0
  1  4  1  0  0  0  0
  1 10  1  0  0  0  0
  4  5  4  0  0  0  0
  4  9  4  0  0  0  0
  5  6  4  0  0  0  0
  6  7  4  0  0  0  0
  7  8  4  0  0  0  0
  8  9  4  0  0  0  0
 10 11  4  0  0  0  0
 10 14  4  0  0  0  0
 11 12  4  0  0  0  0
 11 18  4  0  0  0  0
 12 13  4  0  0  0  0
 12 15  4  0  0  0  0
 13 14  4  0  0  0  0
 15 16  4  0  0  0  0
 16 17  4  0  0  0  0
 17 18  4  0  0  0  0
 18 19  1  0  0  0  0
 19 20  1  0  0  0  0
 20 21  1  0  0  0  0
 21 22  1  0  0  0  0
 21 25  1  0  0  0  0
 22 23  1  0  0  0  0
 23 24  1  0  0  0  0
 24 25  1  0  0  0  0
M  STY  1   1 DAT
M  SAL   1  1  13
M  SDT   1 MRV_IMPLICIT_H                                        
M  SDD   1     0.0000    0.0000    DR    ALL  0       0  
M  SED   1 IMPL_H1
M  END
>  <Name_Molregno>
592289

>  <5-HT2A>
6.93

>  <Norepinephrine transporter>
7.14

$$$$
592290
  Marvin  02231216192D 0   1.00000     0.00000     0

 26 29  0  0  0  0  0  0  0  0999 V2000
   -0.4360   -0.4905    0.0000 S   0  0  0  0  0  0  0  0  0
    0.3487   -0.7454    0.0000 O   0  0  0  0  0  0  0  0  0
   -1.2206   -0.2355    0.0000 O   0  0  0  0  0  0  0  0  0
   -0.6909   -1.2751    0.0000 C   0  0  0  0  0  0  0  0  0
   -0.1389   -1.8882    0.0000 C   0  0  0  0  0  0  0  0  0
   -0.3938   -2.6728    0.0000 C   0  0  0  0  0  0  0  0  0
   -1.2008   -2.8443    0.0000 C   0  0  0  0  0  0  0  0  0
   -1.7528   -2.2312    0.0000 C   0  0  0  0  0  0  0  0  0
   -1.4979   -1.4466    0.0000 C   0  0  0  0  0  0  0  0  0
   -0.1810    0.2942    0.0000 C   0  0  0  0  0  0  0  0  0
    0.6036    0.5491    0.0000 C   0  0  0  0  0  0  0  0  0
    0.6036    1.3741    0.0000 C   0  0  0  0  0  0  0  0  0
   -0.1810    1.6290    0.0000 N   0  0  0  0  0  0  0  0  0
   -0.6659    0.9616    0.0000 C   0  0  0  0  0  0  0  0  0
    1.3181    1.7866    0.0000 C   0  0  0  0  0  0  0  0  0
    2.0325    1.3741    0.0000 C   0  0  0  0  0  0  0  0  0
    2.0325    0.5491    0.0000 C   0  0  0  0  0  0  0  0  0
    1.3181    0.1366    0.0000 C   0  0  0  0  0  0  0  0  0
    1.3181   -0.6884    0.0000 C   0  0  0  0  0  0  0  0  0
    2.0325   -1.1009    0.0000 C   0  0  0  0  0  0  0  0  0
    2.0325   -1.9259    0.0000 N   0  0  0  0  0  0  0  0  0
    2.7470   -2.3384    0.0000 C   0  0  0  0  0  0  0  0  0
    2.7470   -3.1634    0.0000 C   0  0  0  0  0  0  0  0  0
    2.0325   -3.5759    0.0000 C   0  0  0  0  0  0  0  0  0
    1.3181   -3.1634    0.0000 C   0  0  0  0  0  0  0  0  0
    1.3181   -2.3384    0.0000 C   0  0  0  0  0  0  0  0  0
  1  2  2  0  0  0  0
  1  3  2  0  0  0  0
  1  4  1  0  0  0  0
  1 10  1  0  0  0  0
  4  5  4  0  0  0  0
  4  9  4  0  0  0  0
  5  6  4  0  0  0  0
  6  7  4  0  0  0  0
  7  8  4  0  0  0  0
  8  9  4  0  0  0  0
 10 11  4  0  0  0  0
 10 14  4  0  0  0  0
 11 12  4  0  0  0  0
 11 18  4  0  0  0  0
 12 13  4  0  0  0  0
 12 15  4  0  0  0  0
 13 14  4  0  0  0  0
 15 16  4  0  0  0  0
 16 17  4  0  0  0  0
 17 18  4  0  0  0  0
 18 19  1  0  0  0  0
 19 20  1  0  0  0  0
 20 21  1  0  0  0  0
 21 22  1  0  0  0  0
 21 26  1  0  0  0  0
 22 23  1  0  0  0  0
 23 24  1  0  0  0  0
 24 25  1  0  0  0  0
 25 26  1  0  0  0  0
M  STY  1   1 DAT
M  SAL   1  1  13
M  SDT   1 MRV_IMPLICIT_H                                        
M  SDD   1     0.0000    0.0000    DR    ALL  0       0  
M  SED   1 IMPL_H1
M  END
>  <Name_Molregno>
592290

>  <5-HT2A>
7.23

>  <5-HT2C>
5.62

>  <5-HT6>
6.36

>  <Norepinephrine transporter>
7.57

$$$$
592298
  Marvin  02231216192D 0   1.00000     0.00000     0

 27 30  0  0  0  0  0  0  0  0999 V2000
   -0.3809   -0.4195    0.0000 S   0  0  0  0  0  0  0  0  0
    0.4037   -0.6744    0.0000 O   0  0  0  0  0  0  0  0  0
   -1.1655   -0.1645    0.0000 O   0  0  0  0  0  0  0  0  0
   -0.6358   -1.2041    0.0000 C   0  0  0  0  0  0  0  0  0
   -0.0838   -1.8172    0.0000 C   0  0  0  0  0  0  0  0  0
   -0.3387   -2.6018    0.0000 C   0  0  0  0  0  0  0  0  0
   -1.1457   -2.7733    0.0000 C   0  0  0  0  0  0  0  0  0
   -1.6977   -2.1603    0.0000 C   0  0  0  0  0  0  0  0  0
   -1.4428   -1.3756    0.0000 C   0  0  0  0  0  0  0  0  0
   -0.1259    0.3651    0.0000 C   0  0  0  0  0  0  0  0  0
    0.6587    0.6201    0.0000 C   0  0  0  0  0  0  0  0  0
    0.6587    1.4451    0.0000 C   0  0  0  0  0  0  0  0  0
   -0.1259    1.7000    0.0000 N   0  0  0  0  0  0  0  0  0
   -0.6109    1.0326    0.0000 C   0  0  0  0  0  0  0  0  0
    1.3732    1.8576    0.0000 C   0  0  0  0  0  0  0  0  0
    2.0876    1.4451    0.0000 C   0  0  0  0  0  0  0  0  0
    2.0876    0.6201    0.0000 C   0  0  0  0  0  0  0  0  0
    1.3732    0.2076    0.0000 C   0  0  0  0  0  0  0  0  0
    1.3732   -0.6174    0.0000 C   0  0  0  0  0  0  0  0  0
    2.0876   -1.0299    0.0000 C   0  0  0  0  0  0  0  0  0
    2.0876   -1.8549    0.0000 N   0  0  0  0  0  0  0  0  0
    2.8309   -2.2129    0.0000 C   0  0  0  0  0  0  0  0  0
    3.0145   -3.0172    0.0000 C   0  0  0  0  0  0  0  0  0
    2.5001   -3.6622    0.0000 C   0  0  0  0  0  0  0  0  0
    1.6751   -3.6622    0.0000 C   0  0  0  0  0  0  0  0  0
    1.1607   -3.0172    0.0000 C   0  0  0  0  0  0  0  0  0
    1.3443   -2.2129    0.0000 C   0  0  0  0  0  0  0  0  0
  1  2  2  0  0  0  0
  1  3  2  0  0  0  0
  1  4  1  0  0  0  0
  1 10  1  0  0  0  0
  4  5  4  0  0  0  0
  4  9  4  0  0  0  0
  5  6  4  0  0  0  0
  6  7  4  0  0  0  0
  7  8  4  0  0  0  0
  8  9  4  0  0  0  0
 10 11  4  0  0  0  0
 10 14  4  0  0  0  0
 11 12  4  0  0  0  0
 11 18  4  0  0  0  0
 12 13  4  0  0  0  0
 12 15  4  0  0  0  0
 13 14  4  0  0  0  0
 15 16  4  0  0  0  0
 16 17  4  0  0  0  0
 17 18  4  0  0  0  0
 18 19  1  0  0  0  0
 19 20  1  0  0  0  0
 20 21  1  0  0  0  0
 21 22  1  0  0  0  0
 21 27  1  0  0  0  0
 22 23  1  0  0  0  0
 23 24  1  0  0  0  0
 24 25  1  0  0  0  0
 25 26  1  0  0  0  0
 26 27  1  0  0  0  0
M  STY  1   1 DAT
M  SAL   1  1  13
M  SDT   1 MRV_IMPLICIT_H                                        
M  SDD   1     0.0000    0.0000    DR    ALL  0       0  
M  SED   1 IMPL_H1
M  END
>  <Name_Molregno>
592298

>  <5-HT2A>
7.48

>  <Norepinephrine transporter>
6.68

$$$$
592299
  Marvin  02231216192D 0   1.00000     0.00000     0

 27 30  0  0  1  0  0  0  0  0999 V2000
   -0.3775   -0.5452    0.0000 S   0  0  0  0  0  0  0  0  0
    0.4071   -0.8002    0.0000 O   0  0  0  0  0  0  0  0  0
   -1.1621   -0.2903    0.0000 O   0  0  0  0  0  0  0  0  0
   -0.6325   -1.3299    0.0000 C   0  0  0  0  0  0  0  0  0
   -0.0804   -1.9429    0.0000 C   0  0  0  0  0  0  0  0  0
   -0.3354   -2.7276    0.0000 C   0  0  0  0  0  0  0  0  0
   -1.1423   -2.8991    0.0000 C   0  0  0  0  0  0  0  0  0
   -1.6944   -2.2860    0.0000 C   0  0  0  0  0  0  0  0  0
   -1.4394   -1.5014    0.0000 C   0  0  0  0  0  0  0  0  0
   -0.1226    0.2394    0.0000 C   0  0  0  0  0  0  0  0  0
    0.6620    0.4943    0.0000 C   0  0  0  0  0  0  0  0  0
    0.6620    1.3193    0.0000 C   0  0  0  0  0  0  0  0  0
   -0.1226    1.5743    0.0000 N   0  0  0  0  0  0  0  0  0
   -0.6075    0.9068    0.0000 C   0  0  0  0  0  0  0  0  0
    1.3765    1.7318    0.0000 C   0  0  0  0  0  0  0  0  0
    2.0910    1.3193    0.0000 C   0  0  0  0  0  0  0  0  0
    2.0910    0.4943    0.0000 C   0  0  0  0  0  0  0  0  0
    1.3765    0.0818    0.0000 C   0  0  0  0  0  0  0  0  0
    1.3765   -0.7432    0.0000 C   0  0  0  0  0  0  0  0  0
    2.0910   -1.1557    0.0000 C   0  0  0  0  0  0  0  0  0
    2.0910   -1.9807    0.0000 N   0  0  0  0  0  0  0  0  0
    2.8055   -2.3932    0.0000 C   0  0  0  0  0  0  0  0  0
    2.8055   -3.2182    0.0000 C   0  0  0  0  0  0  0  0  0
    2.0910   -3.6307    0.0000 C   0  0  0  0  0  0  0  0  0
    1.3765   -3.2182    0.0000 C   0  0  0  0  0  0  0  0  0
    1.3765   -2.3932    0.0000 C   0  0  0  0  0  0  0  0  0
    0.6620   -1.9807    0.0000 C   0  0  0  0  0  0  0  0  0
  1  2  2  0  0  0  0
  1  3  2  0  0  0  0
  1  4  1  0  0  0  0
  1 10  1  0  0  0  0
  4  5  4  0  0  0  0
  4  9  4  0  0  0  0
  5  6  4  0  0  0  0
  6  7  4  0  0  0  0
  7  8  4  0  0  0  0
  8  9  4  0  0  0  0
 10 11  4  0  0  0  0
 10 14  4  0  0  0  0
 11 12  4  0  0  0  0
 11 18  4  0  0  0  0
 12 13  4  0  0  0  0
 12 15  4  0  0  0  0
 13 14  4  0  0  0  0
 15 16  4  0  0  0  0
 16 17  4  0  0  0  0
 17 18  4  0  0  0  0
 18 19  1  0  0  0  0
 19 20  1  0  0  0  0
 20 21  1  0  0  0  0
 21 22  1  0  0  0  0
 21 26  1  0  0  0  0
 22 23  1  0  0  0  0
 23 24  1  0  0  0  0
 24 25  1  0  0  0  0
 25 26  1  0  0  0  0
 26 27  1  0  0  0  0
M  STY  1   1 DAT
M  SAL   1  1  13
M  SDT   1 MRV_IMPLICIT_H                                        
M  SDD   1     0.0000    0.0000    DR    ALL  0       0  
M  SED   1 IMPL_H1
M  END
>  <Name_Molregno>
592299

>  <5-HT2A>
7.05

>  <Norepinephrine transporter>
6.9

$$$$
592322
  Marvin  02231216192D 0   1.00000     0.00000     0

 27 30  0  0  1  0  0  0  0  0999 V2000
   -1.8540   -0.4672    0.0000 S   0  0  0  0  0  0  0  0  0
   -1.0694   -0.7221    0.0000 O   0  0  0  0  0  0  0  0  0
   -2.6387   -0.2122    0.0000 O   0  0  0  0  0  0  0  0  0
   -2.1090   -1.2518    0.0000 C   0  0  0  0  0  0  0  0  0
   -1.5569   -1.8649    0.0000 C   0  0  0  0  0  0  0  0  0
   -1.8119   -2.6495    0.0000 C   0  0  0  0  0  0  0  0  0
   -2.6189   -2.8210    0.0000 C   0  0  0  0  0  0  0  0  0
   -3.1709   -2.2079    0.0000 C   0  0  0  0  0  0  0  0  0
   -2.9159   -1.4233    0.0000 C   0  0  0  0  0  0  0  0  0
   -1.5991    0.3174    0.0000 C   0  0  0  0  0  0  0  0  0
   -0.8145    0.5724    0.0000 C   0  0  0  0  0  0  0  0  0
   -0.8145    1.3974    0.0000 C   0  0  0  0  0  0  0  0  0
   -1.5991    1.6523    0.0000 N   0  0  0  0  0  0  0  0  0
   -2.0840    0.9849    0.0000 C   0  0  0  0  0  0  0  0  0
   -0.1000    1.8099    0.0000 C   0  0  0  0  0  0  0  0  0
    0.6145    1.3974    0.0000 C   0  0  0  0  0  0  0  0  0
    0.6145    0.5724    0.0000 C   0  0  0  0  0  0  0  0  0
   -0.1000    0.1599    0.0000 C   0  0  0  0  0  0  0  0  0
   -0.1000   -0.6651    0.0000 C   0  0  0  0  0  0  0  0  0
    0.6145   -1.0776    0.0000 C   0  0  0  0  0  0  0  0  0
    0.6145   -1.9026    0.0000 N   0  0  0  0  0  0  0  0  0
    1.3289   -2.3151    0.0000 C   0  0  0  0  0  0  0  0  0
    1.3289   -3.1401    0.0000 C   0  0  0  0  0  0  0  0  0
    0.6145   -3.5526    0.0000 C   0  0  0  0  0  0  0  0  0
   -0.1000   -3.1401    0.0000 C   0  0  0  0  0  0  0  0  0
   -0.1000   -2.3151    0.0000 C   0  0  0  0  0  0  0  0  0
    2.0434   -3.5526    0.0000 C   0  0  0  0  0  0  0  0  0
  1  2  2  0  0  0  0
  1  3  2  0  0  0  0
  1  4  1  0  0  0  0
  1 10  1  0  0  0  0
  4  5  4  0  0  0  0
  4  9  4  0  0  0  0
  5  6  4  0  0  0  0
  6  7  4  0  0  0  0
  7  8  4  0  0  0  0
  8  9  4  0  0  0  0
 10 11  4  0  0  0  0
 10 14  4  0  0  0  0
 11 12  4  0  0  0  0
 11 18  4  0  0  0  0
 12 13  4  0  0  0  0
 12 15  4  0  0  0  0
 13 14  4  0  0  0  0
 15 16  4  0  0  0  0
 16 17  4  0  0  0  0
 17 18  4  0  0  0  0
 18 19  1  0  0  0  0
 19 20  1  0  0  0  0
 20 21  1  0  0  0  0
 21 22  1  0  0  0  0
 21 26  1  0  0  0  0
 22 23  1  0  0  0  0
 23 24  1  0  0  0  0
 23 27  1  0  0  0  0
 24 25  1  0  0  0  0
 25 26  1  0  0  0  0
M  STY  1   1 DAT
M  SAL   1  1  13
M  SDT   1 MRV_IMPLICIT_H                                        
M  SDD   1     0.0000    0.0000    DR    ALL  0       0  
M  SED   1 IMPL_H1
M  END
>  <Name_Molregno>
592322

>  <5-HT2A>
7.34

>  <Norepinephrine transporter>
5.95

$$$$
592323
  Marvin  02231216192D 0   1.00000     0.00000     0

 25 27  0  0  0  0  0  0  0  0999 V2000
   -0.3142    0.1902    0.0000 S   0  0  0  0  0  0  0  0  0
    0.2989    0.7422    0.0000 O   0  0  0  0  0  0  0  0  0
   -0.9273   -0.3619    0.0000 O   0  0  0  0  0  0  0  0  0
    0.2379   -0.4229    0.0000 C   0  0  0  0  0  0  0  0  0
    1.0448   -0.2514    0.0000 C   0  0  0  0  0  0  0  0  0
    1.5969   -0.8645    0.0000 C   0  0  0  0  0  0  0  0  0
    1.3419   -1.6491    0.0000 C   0  0  0  0  0  0  0  0  0
    0.5350   -1.8207    0.0000 C   0  0  0  0  0  0  0  0  0
   -0.0171   -1.2076    0.0000 C   0  0  0  0  0  0  0  0  0
   -0.8662    0.8032    0.0000 C   0  0  0  0  0  0  0  0  0
   -0.6947    1.6102    0.0000 C   0  0  0  0  0  0  0  0  0
   -1.4091    2.0227    0.0000 C   0  0  0  0  0  0  0  0  0
   -2.0222    1.4707    0.0000 N   0  0  0  0  0  0  0  0  0
   -1.6867    0.7170    0.0000 C   0  0  0  0  0  0  0  0  0
   -1.4091    2.8477    0.0000 C   0  0  0  0  0  0  0  0  0
   -0.6947    3.2602    0.0000 C   0  0  0  0  0  0  0  0  0
    0.0198    2.8477    0.0000 C   0  0  0  0  0  0  0  0  0
    0.0198    2.0227    0.0000 C   0  0  0  0  0  0  0  0  0
    0.7343    1.6102    0.0000 C   0  0  0  0  0  0  0  0  0
    1.4487    2.0227    0.0000 C   0  0  0  0  0  0  0  0  0
    2.1632    1.6102    0.0000 C   0  0  0  0  0  0  0  0  0
    2.8777    2.0227    0.0000 N   0  0  0  0  0  0  0  0  0
    3.5922    1.6102    0.0000 C   0  0  0  0  0  0  0  0  0
    4.3066    2.0227    0.0000 C   0  0  0  0  0  0  0  0  0
    2.8777    2.8477    0.0000 C   0  0  0  0  0  0  0  0  0
  1  2  2  0  0  0  0
  1  3  2  0  0  0  0
  1  4  1  0  0  0  0
  1 10  1  0  0  0  0
  4  5  4  0  0  0  0
  4  9  4  0  0  0  0
  5  6  4  0  0  0  0
  6  7  4  0  0  0  0
  7  8  4  0  0  0  0
  8  9  4  0  0  0  0
 10 11  4  0  0  0  0
 10 14  4  0  0  0  0
 11 12  4  0  0  0  0
 11 18  4  0  0  0  0
 12 13  4  0  0  0  0
 12 15  4  0  0  0  0
 13 14  4  0  0  0  0
 15 16  4  0  0  0  0
 16 17  4  0  0  0  0
 17 18  4  0  0  0  0
 18 19  1  0  0  0  0
 19 20  1  0  0  0  0
 20 21  1  0  0  0  0
 21 22  1  0  0  0  0
 22 23  1  0  0  0  0
 22 25  1  0  0  0  0
 23 24  1  0  0  0  0
M  STY  1   1 DAT
M  SAL   1  1  13
M  SDT   1 MRV_IMPLICIT_H                                        
M  SDD   1     0.0000    0.0000    DR    ALL  0       0  
M  SED   1 IMPL_H1
M  END
>  <Name_Molregno>
592323

>  <5-HT2A>
6.15

>  <Norepinephrine transporter>
7.68

$$$$
592337
  Marvin  02231216192D 0   1.00000     0.00000     0

 25 27  0  0  0  0  0  0  0  0999 V2000
   -0.2946   -1.7177    0.0000 S   0  0  0  0  0  0  0  0  0
    0.3185   -1.1657    0.0000 O   0  0  0  0  0  0  0  0  0
   -0.9077   -2.2697    0.0000 O   0  0  0  0  0  0  0  0  0
    0.2575   -2.3308    0.0000 C   0  0  0  0  0  0  0  0  0
    1.0644   -2.1593    0.0000 C   0  0  0  0  0  0  0  0  0
    1.6165   -2.7724    0.0000 C   0  0  0  0  0  0  0  0  0
    1.3615   -3.5570    0.0000 C   0  0  0  0  0  0  0  0  0
    0.5546   -3.7285    0.0000 C   0  0  0  0  0  0  0  0  0
    0.0025   -3.1154    0.0000 C   0  0  0  0  0  0  0  0  0
   -0.8466   -1.1046    0.0000 C   0  0  0  0  0  0  0  0  0
   -0.6751   -0.2976    0.0000 C   0  0  0  0  0  0  0  0  0
   -1.3895    0.1149    0.0000 C   0  0  0  0  0  0  0  0  0
   -2.0026   -0.4372    0.0000 N   0  0  0  0  0  0  0  0  0
   -1.6671   -1.1908    0.0000 C   0  0  0  0  0  0  0  0  0
   -1.3895    0.9399    0.0000 C   0  0  0  0  0  0  0  0  0
   -0.6751    1.3524    0.0000 C   0  0  0  0  0  0  0  0  0
    0.0394    0.9399    0.0000 C   0  0  0  0  0  0  0  0  0
    0.0394    0.1149    0.0000 C   0  0  0  0  0  0  0  0  0
    0.7539   -0.2976    0.0000 C   0  0  0  0  0  0  0  0  0
    1.4683    0.1149    0.0000 C   0  0  0  0  0  0  0  0  0
    2.1828   -0.2976    0.0000 C   0  0  0  0  0  0  0  0  0
    2.8973    0.1149    0.0000 N   0  0  0  0  0  0  0  0  0
    3.6118   -0.2976    0.0000 C   0  0  0  0  0  0  0  0  0
    4.3262    0.1149    0.0000 C   0  0  0  0  0  0  0  0  0
    3.6118   -1.1226    0.0000 C   0  0  0  0  0  0  0  0  0
  1  2  2  0  0  0  0
  1  3  2  0  0  0  0
  1  4  1  0  0  0  0
  1 10  1  0  0  0  0
  4  5  4  0  0  0  0
  4  9  4  0  0  0  0
  5  6  4  0  0  0  0
  6  7  4  0  0  0  0
  7  8  4  0  0  0  0
  8  9  4  0  0  0  0
 10 11  4  0  0  0  0
 10 14  4  0  0  0  0
 11 12  4  0  0  0  0
 11 18  4  0  0  0  0
 12 13  4  0  0  0  0
 12 15  4  0  0  0  0
 13 14  4  0  0  0  0
 15 16  4  0  0  0  0
 16 17  4  0  0  0  0
 17 18  4  0  0  0  0
 18 19  1  0  0  0  0
 19 20  1  0  0  0  0
 20 21  1  0  0  0  0
 21 22  1  0  0  0  0
 22 23  1  0  0  0  0
 23 24  1  0  0  0  0
 23 25  1  0  0  0  0
M  STY  1   1 DAT
M  SAL   1  1  13
M  SDT   1 MRV_IMPLICIT_H                                        
M  SDD   1     0.0000    0.0000    DR    ALL  0       0  
M  SED   1 IMPL_H1
M  END
>  <Name_Molregno>
592337

>  <5-HT2A>
6.21

>  <Norepinephrine transporter>
7.89

$$$$
592338
  Marvin  02231216192D 0   1.00000     0.00000     0

 27 30  0  0  0  0  0  0  0  0999 V2000
    0.4558    0.4500    0.0000 S   0  0  0  0  0  0  0  0  0
    1.2404    0.1951    0.0000 O   0  0  0  0  0  0  0  0  0
   -0.3289    0.7050    0.0000 O   0  0  0  0  0  0  0  0  0
    0.2008   -0.3346    0.0000 C   0  0  0  0  0  0  0  0  0
    0.7529   -0.9477    0.0000 C   0  0  0  0  0  0  0  0  0
    0.4979   -1.7323    0.0000 C   0  0  0  0  0  0  0  0  0
   -0.3091   -1.9038    0.0000 C   0  0  0  0  0  0  0  0  0
   -0.8611   -1.2907    0.0000 C   0  0  0  0  0  0  0  0  0
   -0.6061   -0.5061    0.0000 C   0  0  0  0  0  0  0  0  0
    0.7107    1.2347    0.0000 C   0  0  0  0  0  0  0  0  0
    1.4953    1.4896    0.0000 C   0  0  0  0  0  0  0  0  0
    1.4953    2.3146    0.0000 C   0  0  0  0  0  0  0  0  0
    0.7107    2.5695    0.0000 N   0  0  0  0  0  0  0  0  0
    0.2258    1.9021    0.0000 C   0  0  0  0  0  0  0  0  0
    2.2098    2.7271    0.0000 C   0  0  0  0  0  0  0  0  0
    2.9243    2.3146    0.0000 C   0  0  0  0  0  0  0  0  0
    2.9243    1.4896    0.0000 C   0  0  0  0  0  0  0  0  0
    2.2098    1.0771    0.0000 C   0  0  0  0  0  0  0  0  0
    2.2098    0.2521    0.0000 C   0  0  0  0  0  0  0  0  0
    1.4953   -0.1604    0.0000 C   0  0  0  0  0  0  0  0  0
    1.4953   -0.9854    0.0000 C   0  0  0  0  0  0  0  0  0
    2.2098   -1.3979    0.0000 N   0  0  0  0  0  0  0  0  0
    2.9243   -0.9854    0.0000 C   0  0  0  0  0  0  0  0  0
    3.6387   -1.3979    0.0000 C   0  0  0  0  0  0  0  0  0
    3.6387   -2.2229    0.0000 C   0  0  0  0  0  0  0  0  0
    2.9243   -2.6354    0.0000 C   0  0  0  0  0  0  0  0  0
    2.2098   -2.2229    0.0000 C   0  0  0  0  0  0  0  0  0
  1  2  2  0  0  0  0
  1  3  2  0  0  0  0
  1  4  1  0  0  0  0
  1 10  1  0  0  0  0
  4  5  4  0  0  0  0
  4  9  4  0  0  0  0
  5  6  4  0  0  0  0
  6  7  4  0  0  0  0
  7  8  4  0  0  0  0
  8  9  4  0  0  0  0
 10 11  4  0  0  0  0
 10 14  4  0  0  0  0
 11 12  4  0  0  0  0
 11 18  4  0  0  0  0
 12 13  4  0  0  0  0
 12 15  4  0  0  0  0
 13 14  4  0  0  0  0
 15 16  4  0  0  0  0
 16 17  4  0  0  0  0
 17 18  4  0  0  0  0
 18 19  1  0  0  0  0
 19 20  1  0  0  0  0
 20 21  1  0  0  0  0
 21 22  1  0  0  0  0
 22 23  1  0  0  0  0
 22 27  1  0  0  0  0
 23 24  1  0  0  0  0
 24 25  1  0  0  0  0
 25 26  1  0  0  0  0
 26 27  1  0  0  0  0
M  STY  1   1 DAT
M  SAL   1  1  13
M  SDT   1 MRV_IMPLICIT_H                                        
M  SDD   1     0.0000    0.0000    DR    ALL  0       0  
M  SED   1 IMPL_H1
M  END
>  <Name_Molregno>
592338

>  <5-HT2A>
6.07

>  <Norepinephrine transporter>
5.99

$$$$
593260
  Marvin  02231216192D 0   1.00000     0.00000     0

 24 27  0  0  1  0  0  0  0  0999 V2000
   -1.8823   -2.3471    0.0000 S   0  0  0  0  0  0  0  0  0
   -2.4949   -1.7945    0.0000 C   0  0  0  0  0  0  0  0  0
   -2.1586   -1.0411    0.0000 C   0  0  0  0  0  0  0  0  0
   -1.3382   -1.1282    0.0000 C   0  0  0  0  0  0  0  0  0
   -1.1674   -1.9353    0.0000 C   0  0  0  0  0  0  0  0  0
   -2.5704   -0.3263    0.0000 C   0  0  0  0  0  0  0  0  0
   -3.3954   -0.3254    0.0000 C   0  0  0  0  0  0  0  0  0
   -3.8071    0.3894    0.0000 C   0  0  0  0  0  0  0  0  0
   -3.3939    1.1035    0.0000 C   0  0  0  0  0  0  0  0  0
   -2.5689    1.1027    0.0000 C   0  0  0  0  0  0  0  0  0
   -2.1571    0.3878    0.0000 C   0  0  0  0  0  0  0  0  0
   -3.8057    1.8184    0.0000 C   0  0  0  0  0  0  0  0  0
   -3.9439    2.6358    0.0000 C   0  0  0  0  0  0  0  0  0
   -4.8727    2.6203    0.0000 C   0  0  0  0  0  0  0  0  0
   -5.4333    3.0602    0.0000 N   0  0  0  0  0  0  0  0  0
   -5.2936    2.2471    0.0000 C   0  0  0  0  0  0  0  0  0
   -5.8135    1.5348    0.0000 C   0  0  0  0  0  0  0  0  0
   -5.1932    1.9117    0.0000 C   0  0  0  0  0  0  0  0  0
   -4.3219    2.2471    0.0000 C   0  0  0  0  0  0  0  0  0
   -4.6021    1.4711    0.0000 C   0  0  0  0  0  0  0  0  0
   -5.4142    1.3258    0.0000 O   0  0  0  0  0  0  0  0  0
   -5.6944    0.5498    0.0000 C   0  0  0  0  0  0  0  0  0
   -4.0702    0.8405    0.0000 O   0  0  0  0  0  0  0  0  0
   -5.8559    3.7687    0.0000 C   0  0  0  0  0  0  0  0  0
  1  2  4  0  0  0  0
  1  5  4  0  0  0  0
  2  3  4  0  0  0  0
  3  4  4  0  0  0  0
  3  6  1  0  0  0  0
  4  5  4  0  0  0  0
  6  7  4  0  0  0  0
  6 11  4  0  0  0  0
  7  8  4  0  0  0  0
  8  9  4  0  0  0  0
  9 10  4  0  0  0  0
  9 12  1  0  0  0  0
 10 11  4  0  0  0  0
 12 13  1  0  0  0  0
 12 19  1  0  0  0  0
 13 14  1  0  0  0  0
 14 15  1  0  0  0  0
 14 18  1  0  0  0  0
 15 16  1  0  0  0  0
 15 24  1  0  0  0  0
 16 17  1  0  0  0  0
 16 19  1  0  0  0  0
 17 18  1  0  0  0  0
 19 20  1  0  0  0  0
 20 21  1  0  0  0  0
 20 23  2  0  0  0  0
 21 22  1  0  0  0  0
M  END
>  <Name_Molregno>
593260

>  <Dopamine transporter>
8.6

>  <Norepinephrine transporter>
7.59

>  <Serotonin transporter>
9.24

$$$$
593261
  Marvin  02231216192D 0   1.00000     0.00000     0

 44 50  0  0  1  0  0  0  0  0999 V2000
    7.6127    1.7311    0.0000 Cl  0  0  0  0  0  0  0  0  0
    7.4684    2.5433    0.0000 C   0  0  0  0  0  0  0  0  0
    6.6928    2.8245    0.0000 C   0  0  0  0  0  0  0  0  0
    6.5485    3.6368    0.0000 C   0  0  0  0  0  0  0  0  0
    7.1798    4.1679    0.0000 C   0  0  0  0  0  0  0  0  0
    7.9554    3.8867    0.0000 C   0  0  0  0  0  0  0  0  0
    8.0997    3.0745    0.0000 C   0  0  0  0  0  0  0  0  0
    7.0355    4.9802    0.0000 C   0  0  0  0  0  0  0  0  0
    7.1833    5.7959    0.0000 C   0  0  0  0  0  0  0  0  0
    6.3045    6.0970    0.0000 C   0  0  0  0  0  0  0  0  0
    5.9268    6.7012    0.0000 N   0  0  0  0  0  0  0  0  0
    5.7819    5.8891    0.0000 C   0  0  0  0  0  0  0  0  0
    5.0508    5.3959    0.0000 C   0  0  0  0  0  0  0  0  0
    5.7623    5.5395    0.0000 C   0  0  0  0  0  0  0  0  0
    6.6957    5.5588    0.0000 C   0  0  0  0  0  0  0  0  0
    6.1685    4.9243    0.0000 C   0  0  0  0  0  0  0  0  0
    5.3553    5.0636    0.0000 O   0  0  0  0  0  0  0  0  0
    6.4544    4.1504    0.0000 N   0  0  0  0  0  0  0  0  0
    5.9271    3.5158    0.0000 C   0  0  0  0  0  0  0  0  0
    6.2130    2.7420    0.0000 C   0  0  0  0  0  0  0  0  0
    5.6858    2.1074    0.0000 C   0  0  0  0  0  0  0  0  0
    4.8726    2.2468    0.0000 C   0  0  0  0  0  0  0  0  0
    4.3454    1.6122    0.0000 N   0  0  0  0  0  0  0  0  0
    4.6313    0.8384    0.0000 C   0  0  0  0  0  0  0  0  0
    5.4444    0.6990    0.0000 O   0  0  0  0  0  0  0  0  0
    4.1040    0.2038    0.0000 C   0  0  0  0  0  0  0  0  0
    3.1752    0.1883    0.0000 C   0  0  0  0  0  0  0  0  0
    2.6146    0.6282    0.0000 N   0  0  0  0  0  0  0  0  0
    2.7543   -0.1849    0.0000 C   0  0  0  0  0  0  0  0  0
    3.7260   -0.1849    0.0000 C   0  0  0  0  0  0  0  0  0
    4.2422   -0.6136    0.0000 C   0  0  0  0  0  0  0  0  0
    4.6540   -1.3285    0.0000 C   0  0  0  0  0  0  0  0  0
    5.4790   -1.3293    0.0000 C   0  0  0  0  0  0  0  0  0
    5.8908   -2.0441    0.0000 C   0  0  0  0  0  0  0  0  0
    5.4776   -2.7582    0.0000 C   0  0  0  0  0  0  0  0  0
    5.8894   -3.4731    0.0000 Cl  0  0  0  0  0  0  0  0  0
    4.6526   -2.7574    0.0000 C   0  0  0  0  0  0  0  0  0
    4.2408   -2.0425    0.0000 C   0  0  0  0  0  0  0  0  0
    2.2344   -0.8972    0.0000 C   0  0  0  0  0  0  0  0  0
    2.8547   -0.5203    0.0000 C   0  0  0  0  0  0  0  0  0
    2.1920    1.3368    0.0000 C   0  0  0  0  0  0  0  0  0
    4.5867    3.0207    0.0000 C   0  0  0  0  0  0  0  0  0
    5.1140    3.6552    0.0000 C   0  0  0  0  0  0  0  0  0
    5.7702    7.5112    0.0000 C   0  0  0  0  0  0  0  0  0
  1  2  1  0  0  0  0
  2  3  4  0  0  0  0
  2  7  4  0  0  0  0
  3  4  4  0  0  0  0
  4  5  4  0  0  0  0
  5  6  4  0  0  0  0
  5  8  1  0  0  0  0
  6  7  4  0  0  0  0
  8  9  1  0  0  0  0
  8 15  1  0  0  0  0
  9 10  1  0  0  0  0
 10 11  1  0  0  0  0
 10 14  1  0  0  0  0
 11 12  1  0  0  0  0
 11 44  1  0  0  0  0
 12 13  1  0  0  0  0
 12 15  1  0  0  0  0
 13 14  1  0  0  0  0
 15 16  1  0  0  0  0
 16 17  2  0  0  0  0
 16 18  1  0  0  0  0
 18 19  1  0  0  0  0
 19 20  1  0  0  0  0
 19 43  1  0  0  0  0
 20 21  1  0  0  0  0
 21 22  1  0  0  0  0
 22 23  1  0  0  0  0
 22 42  1  0  0  0  0
 23 24  1  0  0  0  0
 24 25  2  0  0  0  0
 24 26  1  0  0  0  0
 26 27  1  0  0  0  0
 26 31  1  0  0  0  0
 27 28  1  0  0  0  0
 27 40  1  0  0  0  0
 28 29  1  0  0  0  0
 28 41  1  0  0  0  0
 29 30  1  0  0  0  0
 29 39  1  0  0  0  0
 30 31  1  0  0  0  0
 31 32  1  0  0  0  0
 32 33  4  0  0  0  0
 32 38  4  0  0  0  0
 33 34  4  0  0  0  0
 34 35  4  0  0  0  0
 35 36  1  0  0  0  0
 35 37  4  0  0  0  0
 37 38  4  0  0  0  0
 39 40  1  0  0  0  0
 42 43  1  0  0  0  0
M  END
>  <Name_Molregno>
593261

>  <Dopamine transporter>
6.11

>  <Norepinephrine transporter>
5.29

>  <Serotonin transporter>
5.44

$$$$
593262
  Marvin  02231216192D 0   1.00000     0.00000     0

 45 51  0  0  1  0  0  0  0  0999 V2000
    9.7666    0.1132    0.0000 Cl  0  0  0  0  0  0  0  0  0
    9.3054    0.7973    0.0000 C   0  0  0  0  0  0  0  0  0
    8.4824    0.7398    0.0000 C   0  0  0  0  0  0  0  0  0
    8.0212    1.4239    0.0000 C   0  0  0  0  0  0  0  0  0
    8.3829    2.1653    0.0000 C   0  0  0  0  0  0  0  0  0
    9.2059    2.2227    0.0000 C   0  0  0  0  0  0  0  0  0
    9.6672    1.5387    0.0000 C   0  0  0  0  0  0  0  0  0
    7.9217    2.8493    0.0000 C   0  0  0  0  0  0  0  0  0
    7.7785    3.6659    0.0000 C   0  0  0  0  0  0  0  0  0
    6.8498    3.6447    0.0000 C   0  0  0  0  0  0  0  0  0
    6.2866    4.0812    0.0000 N   0  0  0  0  0  0  0  0  0
    6.4312    3.2690    0.0000 C   0  0  0  0  0  0  0  0  0
    5.9157    2.5535    0.0000 C   0  0  0  0  0  0  0  0  0
    6.5336    2.9342    0.0000 C   0  0  0  0  0  0  0  0  0
    7.2541    3.3284    0.0000 C   0  0  0  0  0  0  0  0  0
    7.5400    2.5545    0.0000 C   0  0  0  0  0  0  0  0  0
    8.1159    1.9638    0.0000 O   0  0  0  0  0  0  0  0  0
    7.0127    1.9200    0.0000 N   0  0  0  0  0  0  0  0  0
    7.2986    1.1461    0.0000 C   0  0  0  0  0  0  0  0  0
    6.7714    0.5116    0.0000 C   0  0  0  0  0  0  0  0  0
    5.9582    0.6509    0.0000 C   0  0  0  0  0  0  0  0  0
    5.6723    1.4248    0.0000 C   0  0  0  0  0  0  0  0  0
    6.1996    2.0593    0.0000 C   0  0  0  0  0  0  0  0  0
    5.4310    0.0164    0.0000 C   0  0  0  0  0  0  0  0  0
    5.7169   -0.7575    0.0000 C   0  0  0  0  0  0  0  0  0
    5.1896   -1.3920    0.0000 N   0  0  0  0  0  0  0  0  0
    5.4755   -2.1659    0.0000 C   0  0  0  0  0  0  0  0  0
    6.2887   -2.3053    0.0000 O   0  0  0  0  0  0  0  0  0
    4.9483   -2.8005    0.0000 C   0  0  0  0  0  0  0  0  0
    4.0195   -2.8160    0.0000 C   0  0  0  0  0  0  0  0  0
    3.4589   -2.3761    0.0000 N   0  0  0  0  0  0  0  0  0
    3.5986   -3.1892    0.0000 C   0  0  0  0  0  0  0  0  0
    4.5703   -3.1892    0.0000 C   0  0  0  0  0  0  0  0  0
    5.0865   -3.6179    0.0000 C   0  0  0  0  0  0  0  0  0
    5.4983   -4.3327    0.0000 C   0  0  0  0  0  0  0  0  0
    6.3233   -4.3336    0.0000 C   0  0  0  0  0  0  0  0  0
    6.7351   -5.0484    0.0000 C   0  0  0  0  0  0  0  0  0
    6.3219   -5.7625    0.0000 C   0  0  0  0  0  0  0  0  0
    6.7337   -6.4774    0.0000 Cl  0  0  0  0  0  0  0  0  0
    5.4969   -5.7617    0.0000 C   0  0  0  0  0  0  0  0  0
    5.0851   -5.0468    0.0000 C   0  0  0  0  0  0  0  0  0
    3.0787   -3.9015    0.0000 C   0  0  0  0  0  0  0  0  0
    3.6990   -3.5246    0.0000 C   0  0  0  0  0  0  0  0  0
    3.0363   -1.6675    0.0000 C   0  0  0  0  0  0  0  0  0
    5.8596    4.7871    0.0000 C   0  0  0  0  0  0  0  0  0
  1  2  1  0  0  0  0
  2  3  4  0  0  0  0
  2  7  4  0  0  0  0
  3  4  4  0  0  0  0
  4  5  4  0  0  0  0
  5  6  4  0  0  0  0
  5  8  1  0  0  0  0
  6  7  4  0  0  0  0
  8  9  1  0  0  0  0
  8 15  1  0  0  0  0
  9 10  1  0  0  0  0
 10 11  1  0  0  0  0
 10 14  1  0  0  0  0
 11 12  1  0  0  0  0
 11 45  1  0  0  0  0
 12 13  1  0  0  0  0
 12 15  1  0  0  0  0
 13 14  1  0  0  0  0
 15 16  1  0  0  0  0
 16 17  2  0  0  0  0
 16 18  1  0  0  0  0
 18 19  1  0  0  0  0
 18 23  1  0  0  0  0
 19 20  1  0  0  0  0
 20 21  1  0  0  0  0
 21 22  1  0  0  0  0
 21 24  1  0  0  0  0
 22 23  1  0  0  0  0
 24 25  1  0  0  0  0
 25 26  1  0  0  0  0
 26 27  1  0  0  0  0
 27 28  2  0  0  0  0
 27 29  1  0  0  0  0
 29 30  1  0  0  0  0
 29 34  1  0  0  0  0
 30 31  1  0  0  0  0
 30 43  1  0  0  0  0
 31 32  1  0  0  0  0
 31 44  1  0  0  0  0
 32 33  1  0  0  0  0
 32 42  1  0  0  0  0
 33 34  1  0  0  0  0
 34 35  1  0  0  0  0
 35 36  4  0  0  0  0
 35 41  4  0  0  0  0
 36 37  4  0  0  0  0
 37 38  4  0  0  0  0
 38 39  1  0  0  0  0
 38 40  4  0  0  0  0
 40 41  4  0  0  0  0
 42 43  1  0  0  0  0
M  END
>  <Name_Molregno>
593262

>  <Dopamine transporter>
6.74

>  <Norepinephrine transporter>
6.36

>  <Serotonin transporter>
5.6

$$$$
593264
  Marvin  02231216192D 0   1.00000     0.00000     0

 45 51  0  0  1  0  0  0  0  0999 V2000
    8.5461    2.1396    0.0000 Cl  0  0  0  0  0  0  0  0  0
    7.7705    2.4208    0.0000 C   0  0  0  0  0  0  0  0  0
    7.1392    1.8897    0.0000 C   0  0  0  0  0  0  0  0  0
    6.3636    2.1708    0.0000 C   0  0  0  0  0  0  0  0  0
    6.2193    2.9831    0.0000 C   0  0  0  0  0  0  0  0  0
    6.8506    3.5142    0.0000 C   0  0  0  0  0  0  0  0  0
    7.6262    3.2331    0.0000 C   0  0  0  0  0  0  0  0  0
    5.4437    3.2643    0.0000 C   0  0  0  0  0  0  0  0  0
    4.8111    3.8002    0.0000 C   0  0  0  0  0  0  0  0  0
    4.1110    3.1897    0.0000 C   0  0  0  0  0  0  0  0  0
    3.3989    3.1647    0.0000 N   0  0  0  0  0  0  0  0  0
    4.0297    2.6330    0.0000 C   0  0  0  0  0  0  0  0  0
    4.0913    1.7533    0.0000 C   0  0  0  0  0  0  0  0  0
    4.3227    2.4413    0.0000 C   0  0  0  0  0  0  0  0  0
    4.7727    3.2593    0.0000 C   0  0  0  0  0  0  0  0  0
    5.0586    2.4855    0.0000 C   0  0  0  0  0  0  0  0  0
    4.5313    1.8509    0.0000 O   0  0  0  0  0  0  0  0  0
    5.8717    2.3461    0.0000 N   0  0  0  0  0  0  0  0  0
    6.1576    1.5722    0.0000 C   0  0  0  0  0  0  0  0  0
    6.9708    1.4329    0.0000 C   0  0  0  0  0  0  0  0  0
    7.2567    0.6590    0.0000 C   0  0  0  0  0  0  0  0  0
    6.7294    0.0245    0.0000 C   0  0  0  0  0  0  0  0  0
    5.9163    0.1638    0.0000 C   0  0  0  0  0  0  0  0  0
    5.6304    0.9377    0.0000 C   0  0  0  0  0  0  0  0  0
    7.0153   -0.7494    0.0000 C   0  0  0  0  0  0  0  0  0
    6.4881   -1.3839    0.0000 N   0  0  0  0  0  0  0  0  0
    6.7740   -2.1578    0.0000 C   0  0  0  0  0  0  0  0  0
    7.5871   -2.2971    0.0000 O   0  0  0  0  0  0  0  0  0
    6.2467   -2.7923    0.0000 C   0  0  0  0  0  0  0  0  0
    5.3179   -2.8078    0.0000 C   0  0  0  0  0  0  0  0  0
    4.7573   -2.3679    0.0000 N   0  0  0  0  0  0  0  0  0
    4.8970   -3.1810    0.0000 C   0  0  0  0  0  0  0  0  0
    5.8687   -3.1810    0.0000 C   0  0  0  0  0  0  0  0  0
    6.3849   -3.6097    0.0000 C   0  0  0  0  0  0  0  0  0
    6.7967   -4.3246    0.0000 C   0  0  0  0  0  0  0  0  0
    7.6217   -4.3254    0.0000 C   0  0  0  0  0  0  0  0  0
    8.0335   -5.0403    0.0000 C   0  0  0  0  0  0  0  0  0
    7.6203   -5.7544    0.0000 C   0  0  0  0  0  0  0  0  0
    8.0321   -6.4692    0.0000 Cl  0  0  0  0  0  0  0  0  0
    6.7953   -5.7536    0.0000 C   0  0  0  0  0  0  0  0  0
    6.3835   -5.0387    0.0000 C   0  0  0  0  0  0  0  0  0
    4.3771   -3.8933    0.0000 C   0  0  0  0  0  0  0  0  0
    4.9974   -3.5164    0.0000 C   0  0  0  0  0  0  0  0  0
    4.3347   -1.6594    0.0000 C   0  0  0  0  0  0  0  0  0
    2.6191    3.4340    0.0000 C   0  0  0  0  0  0  0  0  0
  1  2  1  0  0  0  0
  2  3  4  0  0  0  0
  2  7  4  0  0  0  0
  3  4  4  0  0  0  0
  4  5  4  0  0  0  0
  5  6  4  0  0  0  0
  5  8  1  0  0  0  0
  6  7  4  0  0  0  0
  8  9  1  0  0  0  0
  8 15  1  0  0  0  0
  9 10  1  0  0  0  0
 10 11  1  0  0  0  0
 10 14  1  0  0  0  0
 11 12  1  0  0  0  0
 11 45  1  0  0  0  0
 12 13  1  0  0  0  0
 12 15  1  0  0  0  0
 13 14  1  0  0  0  0
 15 16  1  0  0  0  0
 16 17  2  0  0  0  0
 16 18  1  0  0  0  0
 18 19  1  0  0  0  0
 19 20  4  0  0  0  0
 19 24  4  0  0  0  0
 20 21  4  0  0  0  0
 21 22  4  0  0  0  0
 22 23  4  0  0  0  0
 22 25  1  0  0  0  0
 23 24  4  0  0  0  0
 25 26  1  0  0  0  0
 26 27  1  0  0  0  0
 27 28  2  0  0  0  0
 27 29  1  0  0  0  0
 29 30  1  0  0  0  0
 29 34  1  0  0  0  0
 30 31  1  0  0  0  0
 30 43  1  0  0  0  0
 31 32  1  0  0  0  0
 31 44  1  0  0  0  0
 32 33  1  0  0  0  0
 32 42  1  0  0  0  0
 33 34  1  0  0  0  0
 34 35  1  0  0  0  0
 35 36  4  0  0  0  0
 35 41  4  0  0  0  0
 36 37  4  0  0  0  0
 37 38  4  0  0  0  0
 38 39  1  0  0  0  0
 38 40  4  0  0  0  0
 40 41  4  0  0  0  0
 42 43  1  0  0  0  0
M  END
>  <Name_Molregno>
593264

>  <Dopamine transporter>
7.68

>  <Norepinephrine transporter>
6.09

>  <Serotonin transporter>
5.82

$$$$
593265
  Marvin  02231216192D 0   1.00000     0.00000     0

 46 52  0  0  1  0  0  0  0  0999 V2000
    8.7560    0.9269    0.0000 Cl  0  0  0  0  0  0  0  0  0
    8.6117    1.7392    0.0000 C   0  0  0  0  0  0  0  0  0
    7.8361    2.0204    0.0000 C   0  0  0  0  0  0  0  0  0
    7.6918    2.8326    0.0000 C   0  0  0  0  0  0  0  0  0
    8.3231    3.3638    0.0000 C   0  0  0  0  0  0  0  0  0
    9.0987    3.0826    0.0000 C   0  0  0  0  0  0  0  0  0
    9.2430    2.2703    0.0000 C   0  0  0  0  0  0  0  0  0
    8.1787    4.1760    0.0000 C   0  0  0  0  0  0  0  0  0
    8.3266    4.9918    0.0000 C   0  0  0  0  0  0  0  0  0
    7.4478    5.2929    0.0000 C   0  0  0  0  0  0  0  0  0
    7.0701    5.8971    0.0000 N   0  0  0  0  0  0  0  0  0
    6.9251    5.0849    0.0000 C   0  0  0  0  0  0  0  0  0
    6.1941    4.5917    0.0000 C   0  0  0  0  0  0  0  0  0
    6.9056    4.7354    0.0000 C   0  0  0  0  0  0  0  0  0
    7.8390    4.7547    0.0000 C   0  0  0  0  0  0  0  0  0
    7.3117    4.1201    0.0000 C   0  0  0  0  0  0  0  0  0
    6.4986    4.2595    0.0000 O   0  0  0  0  0  0  0  0  0
    7.5976    3.3463    0.0000 N   0  0  0  0  0  0  0  0  0
    7.0704    2.7117    0.0000 C   0  0  0  0  0  0  0  0  0
    7.3563    1.9378    0.0000 C   0  0  0  0  0  0  0  0  0
    6.8290    1.3033    0.0000 C   0  0  0  0  0  0  0  0  0
    6.0159    1.4426    0.0000 C   0  0  0  0  0  0  0  0  0
    5.7300    2.2165    0.0000 C   0  0  0  0  0  0  0  0  0
    6.2572    2.8511    0.0000 C   0  0  0  0  0  0  0  0  0
    5.4886    0.8081    0.0000 C   0  0  0  0  0  0  0  0  0
    5.7745    0.0342    0.0000 C   0  0  0  0  0  0  0  0  0
    5.2473   -0.6003    0.0000 N   0  0  0  0  0  0  0  0  0
    5.5332   -1.3742    0.0000 C   0  0  0  0  0  0  0  0  0
    6.3464   -1.5135    0.0000 O   0  0  0  0  0  0  0  0  0
    5.0060   -2.0087    0.0000 C   0  0  0  0  0  0  0  0  0
    4.0772   -2.0242    0.0000 C   0  0  0  0  0  0  0  0  0
    3.5166   -1.5843    0.0000 N   0  0  0  0  0  0  0  0  0
    3.6563   -2.3974    0.0000 C   0  0  0  0  0  0  0  0  0
    4.6280   -2.3974    0.0000 C   0  0  0  0  0  0  0  0  0
    5.1442   -2.8261    0.0000 C   0  0  0  0  0  0  0  0  0
    5.5560   -3.5410    0.0000 C   0  0  0  0  0  0  0  0  0
    6.3810   -3.5418    0.0000 C   0  0  0  0  0  0  0  0  0
    6.7927   -4.2567    0.0000 C   0  0  0  0  0  0  0  0  0
    6.3795   -4.9707    0.0000 C   0  0  0  0  0  0  0  0  0
    6.7913   -5.6856    0.0000 Cl  0  0  0  0  0  0  0  0  0
    5.5545   -4.9699    0.0000 C   0  0  0  0  0  0  0  0  0
    5.1427   -4.2551    0.0000 C   0  0  0  0  0  0  0  0  0
    3.1364   -3.1097    0.0000 C   0  0  0  0  0  0  0  0  0
    3.7567   -2.7328    0.0000 C   0  0  0  0  0  0  0  0  0
    3.0939   -0.8758    0.0000 C   0  0  0  0  0  0  0  0  0
    6.9135    6.7071    0.0000 C   0  0  0  0  0  0  0  0  0
  1  2  1  0  0  0  0
  2  3  4  0  0  0  0
  2  7  4  0  0  0  0
  3  4  4  0  0  0  0
  4  5  4  0  0  0  0
  5  6  4  0  0  0  0
  5  8  1  0  0  0  0
  6  7  4  0  0  0  0
  8  9  1  0  0  0  0
  8 15  1  0  0  0  0
  9 10  1  0  0  0  0
 10 11  1  0  0  0  0
 10 14  1  0  0  0  0
 11 12  1  0  0  0  0
 11 46  1  0  0  0  0
 12 13  1  0  0  0  0
 12 15  1  0  0  0  0
 13 14  1  0  0  0  0
 15 16  1  0  0  0  0
 16 17  2  0  0  0  0
 16 18  1  0  0  0  0
 18 19  1  0  0  0  0
 19 20  4  0  0  0  0
 19 24  4  0  0  0  0
 20 21  4  0  0  0  0
 21 22  4  0  0  0  0
 22 23  4  0  0  0  0
 22 25  1  0  0  0  0
 23 24  4  0  0  0  0
 25 26  1  0  0  0  0
 26 27  1  0  0  0  0
 27 28  1  0  0  0  0
 28 29  2  0  0  0  0
 28 30  1  0  0  0  0
 30 31  1  0  0  0  0
 30 35  1  0  0  0  0
 31 32  1  0  0  0  0
 31 44  1  0  0  0  0
 32 33  1  0  0  0  0
 32 45  1  0  0  0  0
 33 34  1  0  0  0  0
 33 43  1  0  0  0  0
 34 35  1  0  0  0  0
 35 36  1  0  0  0  0
 36 37  4  0  0  0  0
 36 42  4  0  0  0  0
 37 38  4  0  0  0  0
 38 39  4  0  0  0  0
 39 40  1  0  0  0  0
 39 41  4  0  0  0  0
 41 42  4  0  0  0  0
 43 44  1  0  0  0  0
M  END
>  <Name_Molregno>
593265

>  <Dopamine transporter>
8.18

>  <Norepinephrine transporter>
6.74

>  <Serotonin transporter>
5.59

$$$$
593266
  Marvin  02231216192D 0   1.00000     0.00000     0

 47 53  0  0  1  0  0  0  0  0999 V2000
   11.7362    3.6406    0.0000 Cl  0  0  0  0  0  0  0  0  0
   10.9606    3.9217    0.0000 C   0  0  0  0  0  0  0  0  0
   10.3293    3.3906    0.0000 C   0  0  0  0  0  0  0  0  0
    9.5537    3.6718    0.0000 C   0  0  0  0  0  0  0  0  0
    9.4094    4.4841    0.0000 C   0  0  0  0  0  0  0  0  0
   10.0406    5.0152    0.0000 C   0  0  0  0  0  0  0  0  0
   10.8163    4.7340    0.0000 C   0  0  0  0  0  0  0  0  0
    8.6337    4.7652    0.0000 C   0  0  0  0  0  0  0  0  0
    8.0012    5.3011    0.0000 C   0  0  0  0  0  0  0  0  0
    7.3011    4.6906    0.0000 C   0  0  0  0  0  0  0  0  0
    6.5889    4.6656    0.0000 N   0  0  0  0  0  0  0  0  0
    7.2198    4.1340    0.0000 C   0  0  0  0  0  0  0  0  0
    7.2814    3.2543    0.0000 C   0  0  0  0  0  0  0  0  0
    7.5128    3.9423    0.0000 C   0  0  0  0  0  0  0  0  0
    7.9628    4.7603    0.0000 C   0  0  0  0  0  0  0  0  0
    8.2487    3.9864    0.0000 C   0  0  0  0  0  0  0  0  0
    9.0618    3.8471    0.0000 O   0  0  0  0  0  0  0  0  0
    7.7214    3.3519    0.0000 N   0  0  0  0  0  0  0  0  0
    8.0073    2.5780    0.0000 C   0  0  0  0  0  0  0  0  0
    7.4801    1.9434    0.0000 C   0  0  0  0  0  0  0  0  0
    7.7660    1.1696    0.0000 C   0  0  0  0  0  0  0  0  0
    7.2387    0.5350    0.0000 C   0  0  0  0  0  0  0  0  0
    6.4256    0.6744    0.0000 C   0  0  0  0  0  0  0  0  0
    6.1397    1.4483    0.0000 C   0  0  0  0  0  0  0  0  0
    6.6669    2.0828    0.0000 C   0  0  0  0  0  0  0  0  0
    5.8983    0.0398    0.0000 C   0  0  0  0  0  0  0  0  0
    6.1842   -0.7340    0.0000 C   0  0  0  0  0  0  0  0  0
    5.6570   -1.3686    0.0000 N   0  0  0  0  0  0  0  0  0
    5.9429   -2.1425    0.0000 C   0  0  0  0  0  0  0  0  0
    6.7560   -2.2818    0.0000 O   0  0  0  0  0  0  0  0  0
    5.4156   -2.7770    0.0000 C   0  0  0  0  0  0  0  0  0
    4.4868   -2.7925    0.0000 C   0  0  0  0  0  0  0  0  0
    3.9262   -2.3526    0.0000 N   0  0  0  0  0  0  0  0  0
    4.0659   -3.1657    0.0000 C   0  0  0  0  0  0  0  0  0
    5.0376   -3.1657    0.0000 C   0  0  0  0  0  0  0  0  0
    5.5538   -3.5944    0.0000 C   0  0  0  0  0  0  0  0  0
    5.9656   -4.3093    0.0000 C   0  0  0  0  0  0  0  0  0
    6.7906   -4.3101    0.0000 C   0  0  0  0  0  0  0  0  0
    7.2024   -5.0250    0.0000 C   0  0  0  0  0  0  0  0  0
    6.7892   -5.7390    0.0000 C   0  0  0  0  0  0  0  0  0
    7.2010   -6.4539    0.0000 Cl  0  0  0  0  0  0  0  0  0
    5.9642   -5.7382    0.0000 C   0  0  0  0  0  0  0  0  0
    5.5524   -5.0233    0.0000 C   0  0  0  0  0  0  0  0  0
    3.5460   -3.8780    0.0000 C   0  0  0  0  0  0  0  0  0
    4.1663   -3.5011    0.0000 C   0  0  0  0  0  0  0  0  0
    3.5036   -1.6440    0.0000 C   0  0  0  0  0  0  0  0  0
    5.8091    4.9350    0.0000 C   0  0  0  0  0  0  0  0  0
  1  2  1  0  0  0  0
  2  3  4  0  0  0  0
  2  7  4  0  0  0  0
  3  4  4  0  0  0  0
  4  5  4  0  0  0  0
  5  6  4  0  0  0  0
  5  8  1  0  0  0  0
  6  7  4  0  0  0  0
  8  9  1  0  0  0  0
  8 15  1  0  0  0  0
  9 10  1  0  0  0  0
 10 11  1  0  0  0  0
 10 14  1  0  0  0  0
 11 12  1  0  0  0  0
 11 47  1  0  0  0  0
 12 13  1  0  0  0  0
 12 15  1  0  0  0  0
 13 14  1  0  0  0  0
 15 16  1  0  0  0  0
 16 17  2  0  0  0  0
 16 18  1  0  0  0  0
 18 19  1  0  0  0  0
 19 20  1  0  0  0  0
 20 21  4  0  0  0  0
 20 25  4  0  0  0  0
 21 22  4  0  0  0  0
 22 23  4  0  0  0  0
 23 24  4  0  0  0  0
 23 26  1  0  0  0  0
 24 25  4  0  0  0  0
 26 27  1  0  0  0  0
 27 28  1  0  0  0  0
 28 29  1  0  0  0  0
 29 30  2  0  0  0  0
 29 31  1  0  0  0  0
 31 32  1  0  0  0  0
 31 36  1  0  0  0  0
 32 33  1  0  0  0  0
 32 45  1  0  0  0  0
 33 34  1  0  0  0  0
 33 46  1  0  0  0  0
 34 35  1  0  0  0  0
 34 44  1  0  0  0  0
 35 36  1  0  0  0  0
 36 37  1  0  0  0  0
 37 38  4  0  0  0  0
 37 43  4  0  0  0  0
 38 39  4  0  0  0  0
 39 40  4  0  0  0  0
 40 41  1  0  0  0  0
 40 42  4  0  0  0  0
 42 43  4  0  0  0  0
 44 45  1  0  0  0  0
M  END
>  <Name_Molregno>
593266

>  <Dopamine transporter>
7.7

>  <Norepinephrine transporter>
7

>  <Serotonin transporter>
7.19

$$$$
593267
  Marvin  02231216192D 0   1.00000     0.00000     0

 52 59  0  0  1  0  0  0  0  0999 V2000
   -2.6703    4.8995    0.0000 S   0  0  0  0  0  0  0  0  0
   -3.4528    4.6380    0.0000 C   0  0  0  0  0  0  0  0  0
   -3.9432    5.3014    0.0000 C   0  0  0  0  0  0  0  0  0
   -3.4639    5.9729    0.0000 C   0  0  0  0  0  0  0  0  0
   -2.6772    5.7245    0.0000 C   0  0  0  0  0  0  0  0  0
   -4.7682    5.2945    0.0000 C   0  0  0  0  0  0  0  0  0
   -5.1747    4.5766    0.0000 C   0  0  0  0  0  0  0  0  0
   -5.9997    4.5698    0.0000 C   0  0  0  0  0  0  0  0  0
   -6.4182    5.2808    0.0000 C   0  0  0  0  0  0  0  0  0
   -6.0116    5.9986    0.0000 C   0  0  0  0  0  0  0  0  0
   -5.1867    6.0055    0.0000 C   0  0  0  0  0  0  0  0  0
   -7.2431    5.2739    0.0000 C   0  0  0  0  0  0  0  0  0
   -8.0180    4.9792    0.0000 C   0  0  0  0  0  0  0  0  0
   -8.4749    5.7879    0.0000 C   0  0  0  0  0  0  0  0  0
   -9.1381    6.0486    0.0000 N   0  0  0  0  0  0  0  0  0
   -8.3662    6.3399    0.0000 C   0  0  0  0  0  0  0  0  0
   -8.0152    7.1489    0.0000 C   0  0  0  0  0  0  0  0  0
   -8.0262    6.4231    0.0000 C   0  0  0  0  0  0  0  0  0
   -7.8742    5.5019    0.0000 C   0  0  0  0  0  0  0  0  0
   -8.6834    4.9238    0.0000 C   0  0  0  0  0  0  0  0  0
   -9.4459    4.5239    0.0000 O   0  0  0  0  0  0  0  0  0
   -8.4440    4.0895    0.0000 N   0  0  0  0  0  0  0  0  0
   -8.7665    3.3143    0.0000 C   0  0  0  0  0  0  0  0  0
   -8.3227    2.6198    0.0000 C   0  0  0  0  0  0  0  0  0
   -8.9039    2.0325    0.0000 C   0  0  0  0  0  0  0  0  0
   -8.5880    1.2710    0.0000 C   0  0  0  0  0  0  0  0  0
   -9.1554    0.6713    0.0000 C   0  0  0  0  0  0  0  0  0
   -8.8027   -0.0698    0.0000 C   0  0  0  0  0  0  0  0  0
   -9.2937   -0.7257    0.0000 N   0  0  0  0  0  0  0  0  0
   -8.9959   -1.5362    0.0000 C   0  0  0  0  0  0  0  0  0
   -8.1673   -1.6483    0.0000 O   0  0  0  0  0  0  0  0  0
   -9.6082   -2.1747    0.0000 C   0  0  0  0  0  0  0  0  0
  -10.5370   -2.1902    0.0000 C   0  0  0  0  0  0  0  0  0
  -11.0976   -1.7503    0.0000 N   0  0  0  0  0  0  0  0  0
  -10.9579   -2.5634    0.0000 C   0  0  0  0  0  0  0  0  0
   -9.9862   -2.5634    0.0000 C   0  0  0  0  0  0  0  0  0
   -9.4700   -2.9921    0.0000 C   0  0  0  0  0  0  0  0  0
   -9.0582   -3.7069    0.0000 C   0  0  0  0  0  0  0  0  0
   -8.2332   -3.7078    0.0000 C   0  0  0  0  0  0  0  0  0
   -7.8214   -4.4226    0.0000 C   0  0  0  0  0  0  0  0  0
   -8.2346   -5.1367    0.0000 C   0  0  0  0  0  0  0  0  0
   -9.0596   -5.1359    0.0000 C   0  0  0  0  0  0  0  0  0
   -9.4714   -4.4210    0.0000 C   0  0  0  0  0  0  0  0  0
   -7.8228   -5.8516    0.0000 C   0  0  0  0  0  0  0  0  0
   -7.0024   -5.9386    0.0000 C   0  0  0  0  0  0  0  0  0
   -6.8317   -6.7458    0.0000 C   0  0  0  0  0  0  0  0  0
   -7.5465   -7.1576    0.0000 S   0  0  0  0  0  0  0  0  0
   -8.1591   -6.6049    0.0000 C   0  0  0  0  0  0  0  0  0
  -11.4778   -3.2757    0.0000 C   0  0  0  0  0  0  0  0  0
  -10.8575   -2.8988    0.0000 C   0  0  0  0  0  0  0  0  0
  -11.5887   -1.0175    0.0000 C   0  0  0  0  0  0  0  0  0
   -9.9631    6.0542    0.0000 C   0  0  0  0  0  0  0  0  0
  1  2  4  0  0  0  0
  1  5  4  0  0  0  0
  2  3  4  0  0  0  0
  3  4  4  0  0  0  0
  3  6  1  0  0  0  0
  4  5  4  0  0  0  0
  6  7  4  0  0  0  0
  6 11  4  0  0  0  0
  7  8  4  0  0  0  0
  8  9  4  0  0  0  0
  9 10  4  0  0  0  0
  9 12  1  0  0  0  0
 10 11  4  0  0  0  0
 12 13  1  0  0  0  0
 12 19  1  0  0  0  0
 13 14  1  0  0  0  0
 14 15  1  0  0  0  0
 14 18  1  0  0  0  0
 15 16  1  0  0  0  0
 15 52  1  0  0  0  0
 16 17  1  0  0  0  0
 16 19  1  0  0  0  0
 17 18  1  0  0  0  0
 19 20  1  0  0  0  0
 20 21  2  0  0  0  0
 20 22  1  0  0  0  0
 22 23  1  0  0  0  0
 23 24  1  0  0  0  0
 24 25  1  0  0  0  0
 25 26  1  0  0  0  0
 26 27  1  0  0  0  0
 27 28  1  0  0  0  0
 28 29  1  0  0  0  0
 29 30  1  0  0  0  0
 30 31  2  0  0  0  0
 30 32  1  0  0  0  0
 32 33  1  0  0  0  0
 32 37  1  0  0  0  0
 33 34  1  0  0  0  0
 33 50  1  0  0  0  0
 34 35  1  0  0  0  0
 34 51  1  0  0  0  0
 35 36  1  0  0  0  0
 35 49  1  0  0  0  0
 36 37  1  0  0  0  0
 37 38  1  0  0  0  0
 38 39  4  0  0  0  0
 38 43  4  0  0  0  0
 39 40  4  0  0  0  0
 40 41  4  0  0  0  0
 41 42  4  0  0  0  0
 41 44  1  0  0  0  0
 42 43  4  0  0  0  0
 44 45  4  0  0  0  0
 44 48  4  0  0  0  0
 45 46  4  0  0  0  0
 46 47  4  0  0  0  0
 47 48  4  0  0  0  0
 49 50  1  0  0  0  0
M  END
>  <Name_Molregno>
593267

>  <Dopamine transporter>
6.27

>  <Norepinephrine transporter>
5.66

>  <Serotonin transporter>
5.68

$$$$
593268
  Marvin  02231216192D 0   1.00000     0.00000     0

 54 61  0  0  1  0  0  0  0  0999 V2000
   14.0360    5.6172    0.0000 S   0  0  0  0  0  0  0  0  0
   13.2535    5.3557    0.0000 C   0  0  0  0  0  0  0  0  0
   12.7630    6.0191    0.0000 C   0  0  0  0  0  0  0  0  0
   13.2424    6.6906    0.0000 C   0  0  0  0  0  0  0  0  0
   14.0291    6.4422    0.0000 C   0  0  0  0  0  0  0  0  0
   11.9380    6.0122    0.0000 C   0  0  0  0  0  0  0  0  0
   11.5315    5.2943    0.0000 C   0  0  0  0  0  0  0  0  0
   10.7066    5.2875    0.0000 C   0  0  0  0  0  0  0  0  0
   10.2881    5.9985    0.0000 C   0  0  0  0  0  0  0  0  0
   10.6946    6.7164    0.0000 C   0  0  0  0  0  0  0  0  0
   11.5196    6.7232    0.0000 C   0  0  0  0  0  0  0  0  0
    9.4631    5.9916    0.0000 C   0  0  0  0  0  0  0  0  0
    8.6883    5.6969    0.0000 C   0  0  0  0  0  0  0  0  0
    8.2314    6.5056    0.0000 C   0  0  0  0  0  0  0  0  0
    7.5682    6.7663    0.0000 N   0  0  0  0  0  0  0  0  0
    8.3400    7.0576    0.0000 C   0  0  0  0  0  0  0  0  0
    8.6910    7.8666    0.0000 C   0  0  0  0  0  0  0  0  0
    8.6801    7.1408    0.0000 C   0  0  0  0  0  0  0  0  0
    8.8321    6.2196    0.0000 C   0  0  0  0  0  0  0  0  0
    8.0498    5.6306    0.0000 C   0  0  0  0  0  0  0  0  0
    7.3145    5.2028    0.0000 O   0  0  0  0  0  0  0  0  0
    7.8864    4.7762    0.0000 N   0  0  0  0  0  0  0  0  0
    7.9213    3.9126    0.0000 C   0  0  0  0  0  0  0  0  0
    8.4369    3.2701    0.0000 C   0  0  0  0  0  0  0  0  0
    7.8297    2.7174    0.0000 C   0  0  0  0  0  0  0  0  0
    8.1305    1.9465    0.0000 C   0  0  0  0  0  0  0  0  0
    7.5692    1.3348    0.0000 C   0  0  0  0  0  0  0  0  0
    7.8767    0.5746    0.0000 C   0  0  0  0  0  0  0  0  0
    7.2305    0.0597    0.0000 C   0  0  0  0  0  0  0  0  0
    7.6788   -0.6655    0.0000 C   0  0  0  0  0  0  0  0  0
    7.4337   -1.4527    0.0000 N   0  0  0  0  0  0  0  0  0
    7.5205   -2.2812    0.0000 C   0  0  0  0  0  0  0  0  0
    8.3840   -2.2030    0.0000 O   0  0  0  0  0  0  0  0  0
    6.8568   -2.8654    0.0000 C   0  0  0  0  0  0  0  0  0
    5.9280   -2.8809    0.0000 C   0  0  0  0  0  0  0  0  0
    5.3674   -2.4410    0.0000 N   0  0  0  0  0  0  0  0  0
    5.5071   -3.2541    0.0000 C   0  0  0  0  0  0  0  0  0
    6.4788   -3.2541    0.0000 C   0  0  0  0  0  0  0  0  0
    6.9950   -3.6828    0.0000 C   0  0  0  0  0  0  0  0  0
    7.4067   -4.3977    0.0000 C   0  0  0  0  0  0  0  0  0
    8.2317   -4.3985    0.0000 C   0  0  0  0  0  0  0  0  0
    8.6435   -5.1133    0.0000 C   0  0  0  0  0  0  0  0  0
    8.2303   -5.8274    0.0000 C   0  0  0  0  0  0  0  0  0
    7.4053   -5.8266    0.0000 C   0  0  0  0  0  0  0  0  0
    6.9935   -5.1117    0.0000 C   0  0  0  0  0  0  0  0  0
    8.6421   -6.5423    0.0000 C   0  0  0  0  0  0  0  0  0
    9.4625   -6.6293    0.0000 C   0  0  0  0  0  0  0  0  0
    9.6333   -7.4365    0.0000 C   0  0  0  0  0  0  0  0  0
    8.9184   -7.8483    0.0000 S   0  0  0  0  0  0  0  0  0
    8.3058   -7.2956    0.0000 C   0  0  0  0  0  0  0  0  0
    4.9872   -3.9664    0.0000 C   0  0  0  0  0  0  0  0  0
    5.6075   -3.5895    0.0000 C   0  0  0  0  0  0  0  0  0
    4.8641   -1.7351    0.0000 C   0  0  0  0  0  0  0  0  0
    6.7432    6.7720    0.0000 C   0  0  0  0  0  0  0  0  0
  1  2  4  0  0  0  0
  1  5  4  0  0  0  0
  2  3  4  0  0  0  0
  3  4  4  0  0  0  0
  3  6  1  0  0  0  0
  4  5  4  0  0  0  0
  6  7  4  0  0  0  0
  6 11  4  0  0  0  0
  7  8  4  0  0  0  0
  8  9  4  0  0  0  0
  9 10  4  0  0  0  0
  9 12  1  0  0  0  0
 10 11  4  0  0  0  0
 12 13  1  0  0  0  0
 12 19  1  0  0  0  0
 13 14  1  0  0  0  0
 14 15  1  0  0  0  0
 14 18  1  0  0  0  0
 15 16  1  0  0  0  0
 15 54  1  0  0  0  0
 16 17  1  0  0  0  0
 16 19  1  0  0  0  0
 17 18  1  0  0  0  0
 19 20  1  0  0  0  0
 20 21  2  0  0  0  0
 20 22  1  0  0  0  0
 22 23  1  0  0  0  0
 23 24  1  0  0  0  0
 24 25  1  0  0  0  0
 25 26  1  0  0  0  0
 26 27  1  0  0  0  0
 27 28  1  0  0  0  0
 28 29  1  0  0  0  0
 29 30  1  0  0  0  0
 30 31  1  0  0  0  0
 31 32  1  0  0  0  0
 32 33  2  0  0  0  0
 32 34  1  0  0  0  0
 34 35  1  0  0  0  0
 34 39  1  0  0  0  0
 35 36  1  0  0  0  0
 35 52  1  0  0  0  0
 36 37  1  0  0  0  0
 36 53  1  0  0  0  0
 37 38  1  0  0  0  0
 37 51  1  0  0  0  0
 38 39  1  0  0  0  0
 39 40  1  0  0  0  0
 40 41  4  0  0  0  0
 40 45  4  0  0  0  0
 41 42  4  0  0  0  0
 42 43  4  0  0  0  0
 43 44  4  0  0  0  0
 43 46  1  0  0  0  0
 44 45  4  0  0  0  0
 46 47  4  0  0  0  0
 46 50  4  0  0  0  0
 47 48  4  0  0  0  0
 48 49  4  0  0  0  0
 49 50  4  0  0  0  0
 51 52  1  0  0  0  0
M  END
>  <Name_Molregno>
593268

>  <Dopamine transporter>
6.16

>  <Norepinephrine transporter>
5.77

>  <Serotonin transporter>
6.33

$$$$
593269
  Marvin  02231216192D 0   1.00000     0.00000     0

 56 63  0  0  1  0  0  0  0  0999 V2000
   14.8906    5.8866    0.0000 S   0  0  0  0  0  0  0  0  0
   14.1081    5.6251    0.0000 C   0  0  0  0  0  0  0  0  0
   13.6176    6.2885    0.0000 C   0  0  0  0  0  0  0  0  0
   14.0970    6.9599    0.0000 C   0  0  0  0  0  0  0  0  0
   14.8837    6.7115    0.0000 C   0  0  0  0  0  0  0  0  0
   12.7927    6.2816    0.0000 C   0  0  0  0  0  0  0  0  0
   12.3861    5.5637    0.0000 C   0  0  0  0  0  0  0  0  0
   11.5612    5.5568    0.0000 C   0  0  0  0  0  0  0  0  0
   11.1427    6.2678    0.0000 C   0  0  0  0  0  0  0  0  0
   11.5492    6.9857    0.0000 C   0  0  0  0  0  0  0  0  0
   12.3742    6.9926    0.0000 C   0  0  0  0  0  0  0  0  0
   10.3177    6.2609    0.0000 C   0  0  0  0  0  0  0  0  0
    9.5429    5.9662    0.0000 C   0  0  0  0  0  0  0  0  0
    9.0860    6.7750    0.0000 C   0  0  0  0  0  0  0  0  0
    8.4228    7.0357    0.0000 N   0  0  0  0  0  0  0  0  0
    9.1947    7.3269    0.0000 C   0  0  0  0  0  0  0  0  0
    9.5456    8.1359    0.0000 C   0  0  0  0  0  0  0  0  0
    9.5347    7.4102    0.0000 C   0  0  0  0  0  0  0  0  0
    9.6867    6.4890    0.0000 C   0  0  0  0  0  0  0  0  0
    8.8713    5.9114    0.0000 C   0  0  0  0  0  0  0  0  0
    8.1134    5.5009    0.0000 O   0  0  0  0  0  0  0  0  0
    9.1094    5.0767    0.0000 N   0  0  0  0  0  0  0  0  0
    8.7906    4.2968    0.0000 C   0  0  0  0  0  0  0  0  0
    9.2371    3.6024    0.0000 C   0  0  0  0  0  0  0  0  0
    8.6595    3.0121    0.0000 C   0  0  0  0  0  0  0  0  0
    8.9611    2.2464    0.0000 C   0  0  0  0  0  0  0  0  0
    8.4353    1.6121    0.0000 C   0  0  0  0  0  0  0  0  0
    8.7359    0.8436    0.0000 C   0  0  0  0  0  0  0  0  0
    8.1672    0.2411    0.0000 C   0  0  0  0  0  0  0  0  0
    8.4647   -0.5651    0.0000 C   0  0  0  0  0  0  0  0  0
    7.9116   -1.1878    0.0000 C   0  0  0  0  0  0  0  0  0
    8.3478   -1.8850    0.0000 C   0  0  0  0  0  0  0  0  0
    7.8092   -2.5466    0.0000 N   0  0  0  0  0  0  0  0  0
    8.0682   -3.3462    0.0000 C   0  0  0  0  0  0  0  0  0
    8.9000   -3.4632    0.0000 O   0  0  0  0  0  0  0  0  0
    7.4700   -4.0044    0.0000 C   0  0  0  0  0  0  0  0  0
    6.5412   -4.0199    0.0000 C   0  0  0  0  0  0  0  0  0
    5.9806   -3.5800    0.0000 N   0  0  0  0  0  0  0  0  0
    6.1203   -4.3931    0.0000 C   0  0  0  0  0  0  0  0  0
    7.0920   -4.3931    0.0000 C   0  0  0  0  0  0  0  0  0
    7.6082   -4.8218    0.0000 C   0  0  0  0  0  0  0  0  0
    8.0200   -5.5367    0.0000 C   0  0  0  0  0  0  0  0  0
    8.8450   -5.5375    0.0000 C   0  0  0  0  0  0  0  0  0
    9.2568   -6.2524    0.0000 C   0  0  0  0  0  0  0  0  0
    8.8436   -6.9665    0.0000 C   0  0  0  0  0  0  0  0  0
    8.0186   -6.9657    0.0000 C   0  0  0  0  0  0  0  0  0
    7.6068   -6.2508    0.0000 C   0  0  0  0  0  0  0  0  0
    9.2554   -7.6813    0.0000 C   0  0  0  0  0  0  0  0  0
    8.9191   -8.4347    0.0000 C   0  0  0  0  0  0  0  0  0
    9.5316   -8.9873    0.0000 C   0  0  0  0  0  0  0  0  0
   10.2465   -8.5755    0.0000 S   0  0  0  0  0  0  0  0  0
   10.0758   -7.7684    0.0000 C   0  0  0  0  0  0  0  0  0
    5.6004   -5.1054    0.0000 C   0  0  0  0  0  0  0  0  0
    6.2207   -4.7285    0.0000 C   0  0  0  0  0  0  0  0  0
    5.4906   -2.8517    0.0000 C   0  0  0  0  0  0  0  0  0
    7.5978    7.0413    0.0000 C   0  0  0  0  0  0  0  0  0
  1  2  4  0  0  0  0
  1  5  4  0  0  0  0
  2  3  4  0  0  0  0
  3  4  4  0  0  0  0
  3  6  1  0  0  0  0
  4  5  4  0  0  0  0
  6  7  4  0  0  0  0
  6 11  4  0  0  0  0
  7  8  4  0  0  0  0
  8  9  4  0  0  0  0
  9 10  4  0  0  0  0
  9 12  1  0  0  0  0
 10 11  4  0  0  0  0
 12 13  1  0  0  0  0
 12 19  1  0  0  0  0
 13 14  1  0  0  0  0
 14 15  1  0  0  0  0
 14 18  1  0  0  0  0
 15 16  1  0  0  0  0
 15 56  1  0  0  0  0
 16 17  1  0  0  0  0
 16 19  1  0  0  0  0
 17 18  1  0  0  0  0
 19 20  1  0  0  0  0
 20 21  2  0  0  0  0
 20 22  1  0  0  0  0
 22 23  1  0  0  0  0
 23 24  1  0  0  0  0
 24 25  1  0  0  0  0
 25 26  1  0  0  0  0
 26 27  1  0  0  0  0
 27 28  1  0  0  0  0
 28 29  1  0  0  0  0
 29 30  1  0  0  0  0
 30 31  1  0  0  0  0
 31 32  1  0  0  0  0
 32 33  1  0  0  0  0
 33 34  1  0  0  0  0
 34 35  2  0  0  0  0
 34 36  1  0  0  0  0
 36 37  1  0  0  0  0
 36 41  1  0  0  0  0
 37 38  1  0  0  0  0
 37 54  1  0  0  0  0
 38 39  1  0  0  0  0
 38 55  1  0  0  0  0
 39 40  1  0  0  0  0
 39 53  1  0  0  0  0
 40 41  1  0  0  0  0
 41 42  1  0  0  0  0
 42 43  4  0  0  0  0
 42 47  4  0  0  0  0
 43 44  4  0  0  0  0
 44 45  4  0  0  0  0
 45 46  4  0  0  0  0
 45 48  1  0  0  0  0
 46 47  4  0  0  0  0
 48 49  4  0  0  0  0
 48 52  4  0  0  0  0
 49 50  4  0  0  0  0
 50 51  4  0  0  0  0
 51 52  4  0  0  0  0
 53 54  1  0  0  0  0
M  END
>  <Name_Molregno>
593269

>  <Dopamine transporter>
6.46

>  <Norepinephrine transporter>
5.82

>  <Serotonin transporter>
6.6

$$$$
593270
  Marvin  02231216192D 0   1.00000     0.00000     0

 52 60  0  0  1  0  0  0  0  0999 V2000
   -4.5598   -2.9948    0.0000 S   0  0  0  0  0  0  0  0  0
   -4.9480   -2.2669    0.0000 C   0  0  0  0  0  0  0  0  0
   -4.3757   -1.6727    0.0000 C   0  0  0  0  0  0  0  0  0
   -3.6337   -2.0334    0.0000 C   0  0  0  0  0  0  0  0  0
   -3.7475   -2.8505    0.0000 C   0  0  0  0  0  0  0  0  0
   -4.5200   -0.8604    0.0000 C   0  0  0  0  0  0  0  0  0
   -5.2956   -0.5792    0.0000 C   0  0  0  0  0  0  0  0  0
   -5.4400    0.2330    0.0000 C   0  0  0  0  0  0  0  0  0
   -4.8087    0.7642    0.0000 C   0  0  0  0  0  0  0  0  0
   -4.0330    0.4830    0.0000 C   0  0  0  0  0  0  0  0  0
   -3.8887   -0.3293    0.0000 C   0  0  0  0  0  0  0  0  0
   -4.9530    1.5764    0.0000 C   0  0  0  0  0  0  0  0  0
   -4.8051    2.3921    0.0000 C   0  0  0  0  0  0  0  0  0
   -5.6839    2.6932    0.0000 C   0  0  0  0  0  0  0  0  0
   -6.0616    3.2975    0.0000 N   0  0  0  0  0  0  0  0  0
   -6.2066    2.4853    0.0000 C   0  0  0  0  0  0  0  0  0
   -6.9376    1.9921    0.0000 C   0  0  0  0  0  0  0  0  0
   -6.2262    2.1357    0.0000 C   0  0  0  0  0  0  0  0  0
   -5.2927    2.1551    0.0000 C   0  0  0  0  0  0  0  0  0
   -5.8200    1.5205    0.0000 C   0  0  0  0  0  0  0  0  0
   -6.6331    1.6599    0.0000 O   0  0  0  0  0  0  0  0  0
   -5.5341    0.7466    0.0000 N   0  0  0  0  0  0  0  0  0
   -6.0613    0.1121    0.0000 C   0  0  0  0  0  0  0  0  0
   -5.7754   -0.6618    0.0000 C   0  0  0  0  0  0  0  0  0
   -6.3027   -1.2963    0.0000 C   0  0  0  0  0  0  0  0  0
   -7.1158   -1.1570    0.0000 C   0  0  0  0  0  0  0  0  0
   -7.6431   -1.7915    0.0000 N   0  0  0  0  0  0  0  0  0
   -7.3572   -2.5654    0.0000 C   0  0  0  0  0  0  0  0  0
   -6.5440   -2.7047    0.0000 O   0  0  0  0  0  0  0  0  0
   -7.8844   -3.1999    0.0000 C   0  0  0  0  0  0  0  0  0
   -8.8132   -3.2154    0.0000 C   0  0  0  0  0  0  0  0  0
   -9.3738   -2.7755    0.0000 N   0  0  0  0  0  0  0  0  0
   -9.2341   -3.5886    0.0000 C   0  0  0  0  0  0  0  0  0
   -8.2624   -3.5886    0.0000 C   0  0  0  0  0  0  0  0  0
   -7.7462   -4.0173    0.0000 C   0  0  0  0  0  0  0  0  0
   -7.3344   -4.7322    0.0000 C   0  0  0  0  0  0  0  0  0
   -6.5094   -4.7330    0.0000 C   0  0  0  0  0  0  0  0  0
   -6.0976   -5.4479    0.0000 C   0  0  0  0  0  0  0  0  0
   -6.5108   -6.1619    0.0000 C   0  0  0  0  0  0  0  0  0
   -7.3358   -6.1611    0.0000 C   0  0  0  0  0  0  0  0  0
   -7.7476   -5.4463    0.0000 C   0  0  0  0  0  0  0  0  0
   -6.0990   -6.8768    0.0000 C   0  0  0  0  0  0  0  0  0
   -5.2786   -6.9639    0.0000 C   0  0  0  0  0  0  0  0  0
   -5.1079   -7.7710    0.0000 C   0  0  0  0  0  0  0  0  0
   -5.8228   -8.1828    0.0000 S   0  0  0  0  0  0  0  0  0
   -6.4353   -7.6302    0.0000 C   0  0  0  0  0  0  0  0  0
   -9.7540   -4.3009    0.0000 C   0  0  0  0  0  0  0  0  0
   -9.1337   -3.9240    0.0000 C   0  0  0  0  0  0  0  0  0
   -9.7964   -2.0670    0.0000 C   0  0  0  0  0  0  0  0  0
   -7.4017   -0.3831    0.0000 C   0  0  0  0  0  0  0  0  0
   -6.8745    0.2514    0.0000 C   0  0  0  0  0  0  0  0  0
   -6.2183    4.1075    0.0000 C   0  0  0  0  0  0  0  0  0
  1  2  4  0  0  0  0
  1  5  4  0  0  0  0
  2  3  4  0  0  0  0
  3  4  4  0  0  0  0
  3  6  1  0  0  0  0
  4  5  4  0  0  0  0
  6  7  4  0  0  0  0
  6 11  4  0  0  0  0
  7  8  4  0  0  0  0
  8  9  4  0  0  0  0
  9 10  4  0  0  0  0
  9 12  1  0  0  0  0
 10 11  4  0  0  0  0
 12 13  1  0  0  0  0
 12 19  1  0  0  0  0
 13 14  1  0  0  0  0
 14 15  1  0  0  0  0
 14 18  1  0  0  0  0
 15 16  1  0  0  0  0
 15 52  1  0  0  0  0
 16 17  1  0  0  0  0
 16 19  1  0  0  0  0
 17 18  1  0  0  0  0
 19 20  1  0  0  0  0
 20 21  2  0  0  0  0
 20 22  1  0  0  0  0
 22 23  1  0  0  0  0
 23 24  1  0  0  0  0
 23 51  1  0  0  0  0
 24 25  1  0  0  0  0
 25 26  1  0  0  0  0
 26 27  1  0  0  0  0
 26 50  1  0  0  0  0
 27 28  1  0  0  0  0
 28 29  2  0  0  0  0
 28 30  1  0  0  0  0
 30 31  1  0  0  0  0
 30 35  1  0  0  0  0
 31 32  1  0  0  0  0
 31 48  1  0  0  0  0
 32 33  1  0  0  0  0
 32 49  1  0  0  0  0
 33 34  1  0  0  0  0
 33 47  1  0  0  0  0
 34 35  1  0  0  0  0
 35 36  1  0  0  0  0
 36 37  4  0  0  0  0
 36 41  4  0  0  0  0
 37 38  4  0  0  0  0
 38 39  4  0  0  0  0
 39 40  4  0  0  0  0
 39 42  1  0  0  0  0
 40 41  4  0  0  0  0
 42 43  4  0  0  0  0
 42 46  4  0  0  0  0
 43 44  4  0  0  0  0
 44 45  4  0  0  0  0
 45 46  4  0  0  0  0
 47 48  1  0  0  0  0
 50 51  1  0  0  0  0
M  END
>  <Name_Molregno>
593270

>  <Dopamine transporter>
6.28

>  <Norepinephrine transporter>
5.51

>  <Serotonin transporter>
6.33

$$$$
593272
  Marvin  02231216192D 0   1.00000     0.00000     0

 53 61  0  0  1  0  0  0  0  0999 V2000
    9.4945    4.7804    0.0000 S   0  0  0  0  0  0  0  0  0
    8.6700    4.8081    0.0000 C   0  0  0  0  0  0  0  0  0
    8.4416    5.6009    0.0000 C   0  0  0  0  0  0  0  0  0
    9.1249    6.0631    0.0000 C   0  0  0  0  0  0  0  0  0
    9.7757    5.5560    0.0000 C   0  0  0  0  0  0  0  0  0
    7.6660    5.8820    0.0000 C   0  0  0  0  0  0  0  0  0
    7.0347    5.3509    0.0000 C   0  0  0  0  0  0  0  0  0
    6.2591    5.6321    0.0000 C   0  0  0  0  0  0  0  0  0
    6.1147    6.4444    0.0000 C   0  0  0  0  0  0  0  0  0
    6.7460    6.9755    0.0000 C   0  0  0  0  0  0  0  0  0
    7.5217    6.6943    0.0000 C   0  0  0  0  0  0  0  0  0
    5.3391    6.7255    0.0000 C   0  0  0  0  0  0  0  0  0
    4.7066    7.2614    0.0000 C   0  0  0  0  0  0  0  0  0
    4.0065    6.6509    0.0000 C   0  0  0  0  0  0  0  0  0
    3.2943    6.6259    0.0000 N   0  0  0  0  0  0  0  0  0
    3.9252    6.0943    0.0000 C   0  0  0  0  0  0  0  0  0
    3.9868    5.2146    0.0000 C   0  0  0  0  0  0  0  0  0
    4.2181    5.9026    0.0000 C   0  0  0  0  0  0  0  0  0
    4.6681    6.7206    0.0000 C   0  0  0  0  0  0  0  0  0
    4.9540    5.9467    0.0000 C   0  0  0  0  0  0  0  0  0
    4.4268    5.3122    0.0000 O   0  0  0  0  0  0  0  0  0
    5.7672    5.8074    0.0000 N   0  0  0  0  0  0  0  0  0
    6.0531    5.0335    0.0000 C   0  0  0  0  0  0  0  0  0
    6.8662    4.8941    0.0000 C   0  0  0  0  0  0  0  0  0
    7.1521    4.1203    0.0000 C   0  0  0  0  0  0  0  0  0
    6.6249    3.4857    0.0000 C   0  0  0  0  0  0  0  0  0
    5.8117    3.6251    0.0000 C   0  0  0  0  0  0  0  0  0
    5.5258    4.3990    0.0000 C   0  0  0  0  0  0  0  0  0
    6.9108    2.7119    0.0000 C   0  0  0  0  0  0  0  0  0
    6.3835    2.0773    0.0000 N   0  0  0  0  0  0  0  0  0
    6.6695    1.3034    0.0000 C   0  0  0  0  0  0  0  0  0
    7.4826    1.1641    0.0000 O   0  0  0  0  0  0  0  0  0
    6.1422    0.6689    0.0000 C   0  0  0  0  0  0  0  0  0
    5.2134    0.6534    0.0000 C   0  0  0  0  0  0  0  0  0
    4.6528    1.0933    0.0000 N   0  0  0  0  0  0  0  0  0
    4.7925    0.2802    0.0000 C   0  0  0  0  0  0  0  0  0
    5.7642    0.2802    0.0000 C   0  0  0  0  0  0  0  0  0
    6.2804   -0.1485    0.0000 C   0  0  0  0  0  0  0  0  0
    6.6922   -0.8634    0.0000 C   0  0  0  0  0  0  0  0  0
    7.5172   -0.8642    0.0000 C   0  0  0  0  0  0  0  0  0
    7.9290   -1.5791    0.0000 C   0  0  0  0  0  0  0  0  0
    7.5158   -2.2931    0.0000 C   0  0  0  0  0  0  0  0  0
    6.6908   -2.2923    0.0000 C   0  0  0  0  0  0  0  0  0
    6.2790   -1.5774    0.0000 C   0  0  0  0  0  0  0  0  0
    7.9276   -3.0080    0.0000 C   0  0  0  0  0  0  0  0  0
    8.7480   -3.0950    0.0000 C   0  0  0  0  0  0  0  0  0
    8.9187   -3.9022    0.0000 C   0  0  0  0  0  0  0  0  0
    8.2038   -4.3140    0.0000 S   0  0  0  0  0  0  0  0  0
    7.5913   -3.7613    0.0000 C   0  0  0  0  0  0  0  0  0
    4.2726   -0.4321    0.0000 C   0  0  0  0  0  0  0  0  0
    4.8929   -0.0552    0.0000 C   0  0  0  0  0  0  0  0  0
    4.2302    1.8018    0.0000 C   0  0  0  0  0  0  0  0  0
    2.5145    6.8953    0.0000 C   0  0  0  0  0  0  0  0  0
  1  2  4  0  0  0  0
  1  5  4  0  0  0  0
  2  3  4  0  0  0  0
  3  4  4  0  0  0  0
  3  6  1  0  0  0  0
  4  5  4  0  0  0  0
  6  7  4  0  0  0  0
  6 11  4  0  0  0  0
  7  8  4  0  0  0  0
  8  9  4  0  0  0  0
  9 10  4  0  0  0  0
  9 12  1  0  0  0  0
 10 11  4  0  0  0  0
 12 13  1  0  0  0  0
 12 19  1  0  0  0  0
 13 14  1  0  0  0  0
 14 15  1  0  0  0  0
 14 18  1  0  0  0  0
 15 16  1  0  0  0  0
 15 53  1  0  0  0  0
 16 17  1  0  0  0  0
 16 19  1  0  0  0  0
 17 18  1  0  0  0  0
 19 20  1  0  0  0  0
 20 21  2  0  0  0  0
 20 22  1  0  0  0  0
 22 23  1  0  0  0  0
 23 24  4  0  0  0  0
 23 28  4  0  0  0  0
 24 25  4  0  0  0  0
 25 26  4  0  0  0  0
 26 27  4  0  0  0  0
 26 29  1  0  0  0  0
 27 28  4  0  0  0  0
 29 30  1  0  0  0  0
 30 31  1  0  0  0  0
 31 32  2  0  0  0  0
 31 33  1  0  0  0  0
 33 34  1  0  0  0  0
 33 38  1  0  0  0  0
 34 35  1  0  0  0  0
 34 51  1  0  0  0  0
 35 36  1  0  0  0  0
 35 52  1  0  0  0  0
 36 37  1  0  0  0  0
 36 50  1  0  0  0  0
 37 38  1  0  0  0  0
 38 39  1  0  0  0  0
 39 40  4  0  0  0  0
 39 44  4  0  0  0  0
 40 41  4  0  0  0  0
 41 42  4  0  0  0  0
 42 43  4  0  0  0  0
 42 45  1  0  0  0  0
 43 44  4  0  0  0  0
 45 46  4  0  0  0  0
 45 49  4  0  0  0  0
 46 47  4  0  0  0  0
 47 48  4  0  0  0  0
 48 49  4  0  0  0  0
 50 51  1  0  0  0  0
M  END
>  <Name_Molregno>
593272

>  <Dopamine transporter>
6.1

>  <Norepinephrine transporter>
5.57

>  <Serotonin transporter>
6.14

$$$$
593273
  Marvin  02231216192D 0   1.00000     0.00000     0

 54 62  0  0  1  0  0  0  0  0999 V2000
    9.4323   -0.9538    0.0000 S   0  0  0  0  0  0  0  0  0
    9.0440   -0.2258    0.0000 C   0  0  0  0  0  0  0  0  0
    9.6163    0.3684    0.0000 C   0  0  0  0  0  0  0  0  0
   10.3583    0.0077    0.0000 C   0  0  0  0  0  0  0  0  0
   10.2445   -0.8095    0.0000 C   0  0  0  0  0  0  0  0  0
    9.4720    1.1806    0.0000 C   0  0  0  0  0  0  0  0  0
    8.6964    1.4618    0.0000 C   0  0  0  0  0  0  0  0  0
    8.5521    2.2741    0.0000 C   0  0  0  0  0  0  0  0  0
    9.1834    2.8052    0.0000 C   0  0  0  0  0  0  0  0  0
    9.9590    2.5240    0.0000 C   0  0  0  0  0  0  0  0  0
   10.1033    1.7118    0.0000 C   0  0  0  0  0  0  0  0  0
    9.0391    3.6175    0.0000 C   0  0  0  0  0  0  0  0  0
    9.1869    4.4332    0.0000 C   0  0  0  0  0  0  0  0  0
    8.3081    4.7343    0.0000 C   0  0  0  0  0  0  0  0  0
    7.9304    5.3385    0.0000 N   0  0  0  0  0  0  0  0  0
    7.7854    4.5263    0.0000 C   0  0  0  0  0  0  0  0  0
    7.0544    4.0331    0.0000 C   0  0  0  0  0  0  0  0  0
    7.7659    4.1768    0.0000 C   0  0  0  0  0  0  0  0  0
    8.6993    4.1961    0.0000 C   0  0  0  0  0  0  0  0  0
    8.1721    3.5616    0.0000 C   0  0  0  0  0  0  0  0  0
    7.3589    3.7009    0.0000 O   0  0  0  0  0  0  0  0  0
    8.4580    2.7877    0.0000 N   0  0  0  0  0  0  0  0  0
    7.9307    2.1531    0.0000 C   0  0  0  0  0  0  0  0  0
    8.2166    1.3793    0.0000 C   0  0  0  0  0  0  0  0  0
    7.6894    0.7447    0.0000 C   0  0  0  0  0  0  0  0  0
    6.8762    0.8841    0.0000 C   0  0  0  0  0  0  0  0  0
    6.5903    1.6579    0.0000 C   0  0  0  0  0  0  0  0  0
    7.1176    2.2925    0.0000 C   0  0  0  0  0  0  0  0  0
    6.3490    0.2495    0.0000 C   0  0  0  0  0  0  0  0  0
    6.6349   -0.5243    0.0000 C   0  0  0  0  0  0  0  0  0
    6.1076   -1.1589    0.0000 N   0  0  0  0  0  0  0  0  0
    6.3935   -1.9328    0.0000 C   0  0  0  0  0  0  0  0  0
    7.2067   -2.0721    0.0000 O   0  0  0  0  0  0  0  0  0
    5.8663   -2.5673    0.0000 C   0  0  0  0  0  0  0  0  0
    4.9375   -2.5828    0.0000 C   0  0  0  0  0  0  0  0  0
    4.3769   -2.1429    0.0000 N   0  0  0  0  0  0  0  0  0
    4.5166   -2.9560    0.0000 C   0  0  0  0  0  0  0  0  0
    5.4883   -2.9560    0.0000 C   0  0  0  0  0  0  0  0  0
    6.0045   -3.3847    0.0000 C   0  0  0  0  0  0  0  0  0
    6.4163   -4.0996    0.0000 C   0  0  0  0  0  0  0  0  0
    7.2413   -4.1004    0.0000 C   0  0  0  0  0  0  0  0  0
    7.6531   -4.8153    0.0000 C   0  0  0  0  0  0  0  0  0
    7.2399   -5.5293    0.0000 C   0  0  0  0  0  0  0  0  0
    6.4149   -5.5285    0.0000 C   0  0  0  0  0  0  0  0  0
    6.0031   -4.8136    0.0000 C   0  0  0  0  0  0  0  0  0
    7.6517   -6.2442    0.0000 C   0  0  0  0  0  0  0  0  0
    8.4720   -6.3312    0.0000 C   0  0  0  0  0  0  0  0  0
    8.6428   -7.1384    0.0000 C   0  0  0  0  0  0  0  0  0
    7.9279   -7.5502    0.0000 S   0  0  0  0  0  0  0  0  0
    7.3154   -6.9975    0.0000 C   0  0  0  0  0  0  0  0  0
    3.9967   -3.6683    0.0000 C   0  0  0  0  0  0  0  0  0
    4.6170   -3.2914    0.0000 C   0  0  0  0  0  0  0  0  0
    3.9543   -1.4344    0.0000 C   0  0  0  0  0  0  0  0  0
    7.7738    6.1485    0.0000 C   0  0  0  0  0  0  0  0  0
  1  2  4  0  0  0  0
  1  5  4  0  0  0  0
  2  3  4  0  0  0  0
  3  4  4  0  0  0  0
  3  6  1  0  0  0  0
  4  5  4  0  0  0  0
  6  7  4  0  0  0  0
  6 11  4  0  0  0  0
  7  8  4  0  0  0  0
  8  9  4  0  0  0  0
  9 10  4  0  0  0  0
  9 12  1  0  0  0  0
 10 11  4  0  0  0  0
 12 13  1  0  0  0  0
 12 19  1  0  0  0  0
 13 14  1  0  0  0  0
 14 15  1  0  0  0  0
 14 18  1  0  0  0  0
 15 16  1  0  0  0  0
 15 54  1  0  0  0  0
 16 17  1  0  0  0  0
 16 19  1  0  0  0  0
 17 18  1  0  0  0  0
 19 20  1  0  0  0  0
 20 21  2  0  0  0  0
 20 22  1  0  0  0  0
 22 23  1  0  0  0  0
 23 24  4  0  0  0  0
 23 28  4  0  0  0  0
 24 25  4  0  0  0  0
 25 26  4  0  0  0  0
 26 27  4  0  0  0  0
 26 29  1  0  0  0  0
 27 28  4  0  0  0  0
 29 30  1  0  0  0  0
 30 31  1  0  0  0  0
 31 32  1  0  0  0  0
 32 33  2  0  0  0  0
 32 34  1  0  0  0  0
 34 35  1  0  0  0  0
 34 39  1  0  0  0  0
 35 36  1  0  0  0  0
 35 52  1  0  0  0  0
 36 37  1  0  0  0  0
 36 53  1  0  0  0  0
 37 38  1  0  0  0  0
 37 51  1  0  0  0  0
 38 39  1  0  0  0  0
 39 40  1  0  0  0  0
 40 41  4  0  0  0  0
 40 45  4  0  0  0  0
 41 42  4  0  0  0  0
 42 43  4  0  0  0  0
 43 44  4  0  0  0  0
 43 46  1  0  0  0  0
 44 45  4  0  0  0  0
 46 47  4  0  0  0  0
 46 50  4  0  0  0  0
 47 48  4  0  0  0  0
 48 49  4  0  0  0  0
 49 50  4  0  0  0  0
 51 52  1  0  0  0  0
M  END
>  <Name_Molregno>
593273

>  <Dopamine transporter>
6.15

>  <Norepinephrine transporter>
5.48

>  <Serotonin transporter>
6.47

$$$$
593274
  Marvin  02231216192D 0   1.00000     0.00000     0

 54 62  0  0  1  0  0  0  0  0999 V2000
    9.9807    7.3807    0.0000 S   0  0  0  0  0  0  0  0  0
    9.5445    6.6805    0.0000 C   0  0  0  0  0  0  0  0  0
    8.7437    6.8790    0.0000 C   0  0  0  0  0  0  0  0  0
    8.6851    7.7019    0.0000 C   0  0  0  0  0  0  0  0  0
    9.4496    8.0120    0.0000 C   0  0  0  0  0  0  0  0  0
    8.1124    6.3479    0.0000 C   0  0  0  0  0  0  0  0  0
    8.2567    5.5356    0.0000 C   0  0  0  0  0  0  0  0  0
    7.6254    5.0045    0.0000 C   0  0  0  0  0  0  0  0  0
    6.8498    5.2857    0.0000 C   0  0  0  0  0  0  0  0  0
    6.7055    6.0979    0.0000 C   0  0  0  0  0  0  0  0  0
    7.3368    6.6291    0.0000 C   0  0  0  0  0  0  0  0  0
    6.2185    4.7545    0.0000 C   0  0  0  0  0  0  0  0  0
    5.4382    4.4747    0.0000 C   0  0  0  0  0  0  0  0  0
    5.6168    3.5631    0.0000 C   0  0  0  0  0  0  0  0  0
    5.2824    2.9339    0.0000 N   0  0  0  0  0  0  0  0  0
    6.0582    3.2144    0.0000 C   0  0  0  0  0  0  0  0  0
    6.8509    2.8279    0.0000 C   0  0  0  0  0  0  0  0  0
    6.3707    3.3723    0.0000 C   0  0  0  0  0  0  0  0  0
    5.8873    4.1710    0.0000 C   0  0  0  0  0  0  0  0  0
    6.7005    4.0316    0.0000 C   0  0  0  0  0  0  0  0  0
    7.2277    4.6662    0.0000 O   0  0  0  0  0  0  0  0  0
    6.9864    3.2578    0.0000 N   0  0  0  0  0  0  0  0  0
    7.7995    3.1184    0.0000 C   0  0  0  0  0  0  0  0  0
    8.0854    2.3445    0.0000 C   0  0  0  0  0  0  0  0  0
    8.8986    2.2052    0.0000 C   0  0  0  0  0  0  0  0  0
    9.1845    1.4313    0.0000 C   0  0  0  0  0  0  0  0  0
    8.6572    0.7968    0.0000 C   0  0  0  0  0  0  0  0  0
    7.8441    0.9361    0.0000 C   0  0  0  0  0  0  0  0  0
    7.5582    1.7100    0.0000 C   0  0  0  0  0  0  0  0  0
    8.9431    0.0229    0.0000 C   0  0  0  0  0  0  0  0  0
    8.4159   -0.6116    0.0000 N   0  0  0  0  0  0  0  0  0
    8.7018   -1.3855    0.0000 C   0  0  0  0  0  0  0  0  0
    9.5149   -1.5248    0.0000 O   0  0  0  0  0  0  0  0  0
    8.1745   -2.0200    0.0000 C   0  0  0  0  0  0  0  0  0
    7.2457   -2.0355    0.0000 C   0  0  0  0  0  0  0  0  0
    6.6851   -1.5956    0.0000 N   0  0  0  0  0  0  0  0  0
    6.8248   -2.4087    0.0000 C   0  0  0  0  0  0  0  0  0
    7.7965   -2.4087    0.0000 C   0  0  0  0  0  0  0  0  0
    8.3127   -2.8374    0.0000 C   0  0  0  0  0  0  0  0  0
    8.7245   -3.5523    0.0000 C   0  0  0  0  0  0  0  0  0
    9.5495   -3.5531    0.0000 C   0  0  0  0  0  0  0  0  0
    9.9613   -4.2680    0.0000 C   0  0  0  0  0  0  0  0  0
    9.5481   -4.9821    0.0000 C   0  0  0  0  0  0  0  0  0
    8.7231   -4.9813    0.0000 C   0  0  0  0  0  0  0  0  0
    8.3113   -4.2664    0.0000 C   0  0  0  0  0  0  0  0  0
    9.9599   -5.6969    0.0000 C   0  0  0  0  0  0  0  0  0
   10.7803   -5.7840    0.0000 C   0  0  0  0  0  0  0  0  0
   10.9510   -6.5911    0.0000 C   0  0  0  0  0  0  0  0  0
   10.2361   -7.0029    0.0000 S   0  0  0  0  0  0  0  0  0
    9.6236   -6.4503    0.0000 C   0  0  0  0  0  0  0  0  0
    6.3049   -3.1210    0.0000 C   0  0  0  0  0  0  0  0  0
    6.9252   -2.7441    0.0000 C   0  0  0  0  0  0  0  0  0
    6.2625   -0.8871    0.0000 C   0  0  0  0  0  0  0  0  0
    4.6592    2.3932    0.0000 C   0  0  0  0  0  0  0  0  0
  1  2  4  0  0  0  0
  1  5  4  0  0  0  0
  2  3  4  0  0  0  0
  3  4  4  0  0  0  0
  3  6  1  0  0  0  0
  4  5  4  0  0  0  0
  6  7  4  0  0  0  0
  6 11  4  0  0  0  0
  7  8  4  0  0  0  0
  8  9  4  0  0  0  0
  9 10  4  0  0  0  0
  9 12  1  0  0  0  0
 10 11  4  0  0  0  0
 12 13  1  0  0  0  0
 12 19  1  0  0  0  0
 13 14  1  0  0  0  0
 14 15  1  0  0  0  0
 14 18  1  0  0  0  0
 15 16  1  0  0  0  0
 15 54  1  0  0  0  0
 16 17  1  0  0  0  0
 16 19  1  0  0  0  0
 17 18  1  0  0  0  0
 19 20  1  0  0  0  0
 20 21  2  0  0  0  0
 20 22  1  0  0  0  0
 22 23  1  0  0  0  0
 23 24  1  0  0  0  0
 24 25  4  0  0  0  0
 24 29  4  0  0  0  0
 25 26  4  0  0  0  0
 26 27  4  0  0  0  0
 27 28  4  0  0  0  0
 27 30  1  0  0  0  0
 28 29  4  0  0  0  0
 30 31  1  0  0  0  0
 31 32  1  0  0  0  0
 32 33  2  0  0  0  0
 32 34  1  0  0  0  0
 34 35  1  0  0  0  0
 34 39  1  0  0  0  0
 35 36  1  0  0  0  0
 35 52  1  0  0  0  0
 36 37  1  0  0  0  0
 36 53  1  0  0  0  0
 37 38  1  0  0  0  0
 37 51  1  0  0  0  0
 38 39  1  0  0  0  0
 39 40  1  0  0  0  0
 40 41  4  0  0  0  0
 40 45  4  0  0  0  0
 41 42  4  0  0  0  0
 42 43  4  0  0  0  0
 43 44  4  0  0  0  0
 43 46  1  0  0  0  0
 44 45  4  0  0  0  0
 46 47  4  0  0  0  0
 46 50  4  0  0  0  0
 47 48  4  0  0  0  0
 48 49  4  0  0  0  0
 49 50  4  0  0  0  0
 51 52  1  0  0  0  0
M  END
>  <Name_Molregno>
593274

>  <Dopamine transporter>
7.03

>  <Norepinephrine transporter>
6.21

>  <Serotonin transporter>
6.8

$$$$
593275
  Marvin  02231216192D 0   1.00000     0.00000     0

 55 63  0  0  1  0  0  0  0  0999 V2000
   13.2441    2.4007    0.0000 S   0  0  0  0  0  0  0  0  0
   12.4196    2.4284    0.0000 C   0  0  0  0  0  0  0  0  0
   12.1911    3.2211    0.0000 C   0  0  0  0  0  0  0  0  0
   12.8745    3.6834    0.0000 C   0  0  0  0  0  0  0  0  0
   13.5252    3.1763    0.0000 C   0  0  0  0  0  0  0  0  0
   11.4155    3.5023    0.0000 C   0  0  0  0  0  0  0  0  0
   10.7842    2.9712    0.0000 C   0  0  0  0  0  0  0  0  0
   10.0086    3.2523    0.0000 C   0  0  0  0  0  0  0  0  0
    9.8643    4.0646    0.0000 C   0  0  0  0  0  0  0  0  0
   10.4956    4.5957    0.0000 C   0  0  0  0  0  0  0  0  0
   11.2712    4.3146    0.0000 C   0  0  0  0  0  0  0  0  0
    9.0887    4.3458    0.0000 C   0  0  0  0  0  0  0  0  0
    8.4562    4.8817    0.0000 C   0  0  0  0  0  0  0  0  0
    7.7560    4.2712    0.0000 C   0  0  0  0  0  0  0  0  0
    7.0439    4.2462    0.0000 N   0  0  0  0  0  0  0  0  0
    7.6748    3.7146    0.0000 C   0  0  0  0  0  0  0  0  0
    7.7364    2.8349    0.0000 C   0  0  0  0  0  0  0  0  0
    7.9677    3.5228    0.0000 C   0  0  0  0  0  0  0  0  0
    8.4177    4.3408    0.0000 C   0  0  0  0  0  0  0  0  0
    8.7036    3.5670    0.0000 C   0  0  0  0  0  0  0  0  0
    9.5167    3.4276    0.0000 O   0  0  0  0  0  0  0  0  0
    8.1763    2.9324    0.0000 N   0  0  0  0  0  0  0  0  0
    8.4622    2.1586    0.0000 C   0  0  0  0  0  0  0  0  0
    7.9350    1.5240    0.0000 C   0  0  0  0  0  0  0  0  0
    8.2209    0.7501    0.0000 C   0  0  0  0  0  0  0  0  0
    7.6937    0.1156    0.0000 C   0  0  0  0  0  0  0  0  0
    6.8805    0.2550    0.0000 C   0  0  0  0  0  0  0  0  0
    6.5946    1.0288    0.0000 C   0  0  0  0  0  0  0  0  0
    7.1219    1.6634    0.0000 C   0  0  0  0  0  0  0  0  0
    6.3533   -0.3796    0.0000 C   0  0  0  0  0  0  0  0  0
    6.6392   -1.1535    0.0000 C   0  0  0  0  0  0  0  0  0
    6.1119   -1.7880    0.0000 N   0  0  0  0  0  0  0  0  0
    6.3978   -2.5619    0.0000 C   0  0  0  0  0  0  0  0  0
    7.2110   -2.7012    0.0000 O   0  0  0  0  0  0  0  0  0
    5.8706   -3.1964    0.0000 C   0  0  0  0  0  0  0  0  0
    4.9418   -3.2119    0.0000 C   0  0  0  0  0  0  0  0  0
    4.3812   -2.7720    0.0000 N   0  0  0  0  0  0  0  0  0
    4.5209   -3.5851    0.0000 C   0  0  0  0  0  0  0  0  0
    5.4926   -3.5851    0.0000 C   0  0  0  0  0  0  0  0  0
    6.0088   -4.0138    0.0000 C   0  0  0  0  0  0  0  0  0
    6.4206   -4.7287    0.0000 C   0  0  0  0  0  0  0  0  0
    7.2456   -4.7295    0.0000 C   0  0  0  0  0  0  0  0  0
    7.6574   -5.4444    0.0000 C   0  0  0  0  0  0  0  0  0
    7.2442   -6.1584    0.0000 C   0  0  0  0  0  0  0  0  0
    6.4192   -6.1576    0.0000 C   0  0  0  0  0  0  0  0  0
    6.0074   -5.4428    0.0000 C   0  0  0  0  0  0  0  0  0
    7.6559   -6.8733    0.0000 C   0  0  0  0  0  0  0  0  0
    8.4763   -6.9604    0.0000 C   0  0  0  0  0  0  0  0  0
    8.6471   -7.7675    0.0000 C   0  0  0  0  0  0  0  0  0
    7.9322   -8.1793    0.0000 S   0  0  0  0  0  0  0  0  0
    7.3196   -7.6267    0.0000 C   0  0  0  0  0  0  0  0  0
    4.0010   -4.2974    0.0000 C   0  0  0  0  0  0  0  0  0
    4.6213   -3.9205    0.0000 C   0  0  0  0  0  0  0  0  0
    3.9586   -2.0635    0.0000 C   0  0  0  0  0  0  0  0  0
    6.2641    4.5155    0.0000 C   0  0  0  0  0  0  0  0  0
  1  2  4  0  0  0  0
  1  5  4  0  0  0  0
  2  3  4  0  0  0  0
  3  4  4  0  0  0  0
  3  6  1  0  0  0  0
  4  5  4  0  0  0  0
  6  7  4  0  0  0  0
  6 11  4  0  0  0  0
  7  8  4  0  0  0  0
  8  9  4  0  0  0  0
  9 10  4  0  0  0  0
  9 12  1  0  0  0  0
 10 11  4  0  0  0  0
 12 13  1  0  0  0  0
 12 19  1  0  0  0  0
 13 14  1  0  0  0  0
 14 15  1  0  0  0  0
 14 18  1  0  0  0  0
 15 16  1  0  0  0  0
 15 55  1  0  0  0  0
 16 17  1  0  0  0  0
 16 19  1  0  0  0  0
 17 18  1  0  0  0  0
 19 20  1  0  0  0  0
 20 21  2  0  0  0  0
 20 22  1  0  0  0  0
 22 23  1  0  0  0  0
 23 24  1  0  0  0  0
 24 25  4  0  0  0  0
 24 29  4  0  0  0  0
 25 26  4  0  0  0  0
 26 27  4  0  0  0  0
 27 28  4  0  0  0  0
 27 30  1  0  0  0  0
 28 29  4  0  0  0  0
 30 31  1  0  0  0  0
 31 32  1  0  0  0  0
 32 33  1  0  0  0  0
 33 34  2  0  0  0  0
 33 35  1  0  0  0  0
 35 36  1  0  0  0  0
 35 40  1  0  0  0  0
 36 37  1  0  0  0  0
 36 53  1  0  0  0  0
 37 38  1  0  0  0  0
 37 54  1  0  0  0  0
 38 39  1  0  0  0  0
 38 52  1  0  0  0  0
 39 40  1  0  0  0  0
 40 41  1  0  0  0  0
 41 42  4  0  0  0  0
 41 46  4  0  0  0  0
 42 43  4  0  0  0  0
 43 44  4  0  0  0  0
 44 45  4  0  0  0  0
 44 47  1  0  0  0  0
 45 46  4  0  0  0  0
 47 48  4  0  0  0  0
 47 51  4  0  0  0  0
 48 49  4  0  0  0  0
 49 50  4  0  0  0  0
 50 51  4  0  0  0  0
 52 53  1  0  0  0  0
M  END
>  <Name_Molregno>
593275

>  <Dopamine transporter>
6.8

>  <Norepinephrine transporter>
5.89

>  <Serotonin transporter>
7.21

$$$$
593276
  Marvin  02231216192D 0   1.00000     0.00000     0

 54 62  0  0  1  0  0  0  0  0999 V2000
   12.1313    3.2196    0.0000 S   0  0  0  0  0  0  0  0  0
   11.3068    3.2473    0.0000 C   0  0  0  0  0  0  0  0  0
   11.0784    4.0400    0.0000 C   0  0  0  0  0  0  0  0  0
   11.7617    4.5023    0.0000 C   0  0  0  0  0  0  0  0  0
   12.4125    3.9952    0.0000 C   0  0  0  0  0  0  0  0  0
   10.3027    4.3212    0.0000 C   0  0  0  0  0  0  0  0  0
    9.6714    3.7901    0.0000 C   0  0  0  0  0  0  0  0  0
    8.8958    4.0712    0.0000 C   0  0  0  0  0  0  0  0  0
    8.7515    4.8835    0.0000 C   0  0  0  0  0  0  0  0  0
    9.3828    5.4146    0.0000 C   0  0  0  0  0  0  0  0  0
   10.1584    5.1335    0.0000 C   0  0  0  0  0  0  0  0  0
    7.9759    5.1647    0.0000 C   0  0  0  0  0  0  0  0  0
    7.3434    5.7006    0.0000 C   0  0  0  0  0  0  0  0  0
    6.6433    5.0901    0.0000 C   0  0  0  0  0  0  0  0  0
    5.9311    5.0651    0.0000 N   0  0  0  0  0  0  0  0  0
    6.5620    4.5334    0.0000 C   0  0  0  0  0  0  0  0  0
    6.6236    3.6537    0.0000 C   0  0  0  0  0  0  0  0  0
    6.8549    4.3417    0.0000 C   0  0  0  0  0  0  0  0  0
    7.3049    5.1597    0.0000 C   0  0  0  0  0  0  0  0  0
    7.5908    4.3859    0.0000 C   0  0  0  0  0  0  0  0  0
    8.4040    4.2465    0.0000 O   0  0  0  0  0  0  0  0  0
    7.0636    3.7513    0.0000 N   0  0  0  0  0  0  0  0  0
    7.3495    2.9775    0.0000 C   0  0  0  0  0  0  0  0  0
    6.8222    2.3429    0.0000 C   0  0  0  0  0  0  0  0  0
    7.1081    1.5690    0.0000 C   0  0  0  0  0  0  0  0  0
    6.5809    0.9345    0.0000 C   0  0  0  0  0  0  0  0  0
    5.7677    1.0738    0.0000 C   0  0  0  0  0  0  0  0  0
    5.4818    1.8477    0.0000 C   0  0  0  0  0  0  0  0  0
    6.0091    2.4823    0.0000 C   0  0  0  0  0  0  0  0  0
    6.8668    0.1606    0.0000 C   0  0  0  0  0  0  0  0  0
    6.3395   -0.4739    0.0000 N   0  0  0  0  0  0  0  0  0
    6.6254   -1.2478    0.0000 C   0  0  0  0  0  0  0  0  0
    7.4386   -1.3871    0.0000 O   0  0  0  0  0  0  0  0  0
    6.0982   -1.8823    0.0000 C   0  0  0  0  0  0  0  0  0
    5.1694   -1.8978    0.0000 C   0  0  0  0  0  0  0  0  0
    4.6088   -1.4579    0.0000 N   0  0  0  0  0  0  0  0  0
    4.7485   -2.2710    0.0000 C   0  0  0  0  0  0  0  0  0
    5.7202   -2.2710    0.0000 C   0  0  0  0  0  0  0  0  0
    6.2364   -2.6997    0.0000 C   0  0  0  0  0  0  0  0  0
    6.6482   -3.4146    0.0000 C   0  0  0  0  0  0  0  0  0
    7.4732   -3.4154    0.0000 C   0  0  0  0  0  0  0  0  0
    7.8850   -4.1303    0.0000 C   0  0  0  0  0  0  0  0  0
    7.4718   -4.8444    0.0000 C   0  0  0  0  0  0  0  0  0
    6.6468   -4.8435    0.0000 C   0  0  0  0  0  0  0  0  0
    6.2350   -4.1287    0.0000 C   0  0  0  0  0  0  0  0  0
    7.8836   -5.5592    0.0000 C   0  0  0  0  0  0  0  0  0
    8.7040   -5.6463    0.0000 C   0  0  0  0  0  0  0  0  0
    8.8747   -6.4534    0.0000 C   0  0  0  0  0  0  0  0  0
    8.1598   -6.8652    0.0000 S   0  0  0  0  0  0  0  0  0
    7.5473   -6.3126    0.0000 C   0  0  0  0  0  0  0  0  0
    4.2286   -2.9833    0.0000 C   0  0  0  0  0  0  0  0  0
    4.8489   -2.6064    0.0000 C   0  0  0  0  0  0  0  0  0
    4.1862   -0.7494    0.0000 C   0  0  0  0  0  0  0  0  0
    5.1513    5.3344    0.0000 C   0  0  0  0  0  0  0  0  0
  1  2  4  0  0  0  0
  1  5  4  0  0  0  0
  2  3  4  0  0  0  0
  3  4  4  0  0  0  0
  3  6  1  0  0  0  0
  4  5  4  0  0  0  0
  6  7  4  0  0  0  0
  6 11  4  0  0  0  0
  7  8  4  0  0  0  0
  8  9  4  0  0  0  0
  9 10  4  0  0  0  0
  9 12  1  0  0  0  0
 10 11  4  0  0  0  0
 12 13  1  0  0  0  0
 12 19  1  0  0  0  0
 13 14  1  0  0  0  0
 14 15  1  0  0  0  0
 14 18  1  0  0  0  0
 15 16  1  0  0  0  0
 15 54  1  0  0  0  0
 16 17  1  0  0  0  0
 16 19  1  0  0  0  0
 17 18  1  0  0  0  0
 19 20  1  0  0  0  0
 20 21  2  0  0  0  0
 20 22  1  0  0  0  0
 22 23  1  0  0  0  0
 23 24  1  0  0  0  0
 24 25  4  0  0  0  0
 24 29  4  0  0  0  0
 25 26  4  0  0  0  0
 26 27  4  0  0  0  0
 26 30  1  0  0  0  0
 27 28  4  0  0  0  0
 28 29  4  0  0  0  0
 30 31  1  0  0  0  0
 31 32  1  0  0  0  0
 32 33  2  0  0  0  0
 32 34  1  0  0  0  0
 34 35  1  0  0  0  0
 34 39  1  0  0  0  0
 35 36  1  0  0  0  0
 35 52  1  0  0  0  0
 36 37  1  0  0  0  0
 36 53  1  0  0  0  0
 37 38  1  0  0  0  0
 37 51  1  0  0  0  0
 38 39  1  0  0  0  0
 39 40  1  0  0  0  0
 40 41  4  0  0  0  0
 40 45  4  0  0  0  0
 41 42  4  0  0  0  0
 42 43  4  0  0  0  0
 43 44  4  0  0  0  0
 43 46  1  0  0  0  0
 44 45  4  0  0  0  0
 46 47  4  0  0  0  0
 46 50  4  0  0  0  0
 47 48  4  0  0  0  0
 48 49  4  0  0  0  0
 49 50  4  0  0  0  0
 51 52  1  0  0  0  0
M  END
>  <Name_Molregno>
593276

>  <Dopamine transporter>
6.64

>  <Norepinephrine transporter>
5.92

>  <Serotonin transporter>
6.07

$$$$
593277
  Marvin  02231216192D 0   1.00000     0.00000     0

 46 52  0  0  1  0  0  0  0  0999 V2000
    9.7424    3.6757    0.0000 Cl  0  0  0  0  0  0  0  0  0
    8.9497    3.4473    0.0000 C   0  0  0  0  0  0  0  0  0
    8.7511    2.6465    0.0000 C   0  0  0  0  0  0  0  0  0
    7.9584    2.4181    0.0000 C   0  0  0  0  0  0  0  0  0
    7.3642    2.9904    0.0000 C   0  0  0  0  0  0  0  0  0
    7.5627    3.7911    0.0000 C   0  0  0  0  0  0  0  0  0
    8.3555    4.0196    0.0000 C   0  0  0  0  0  0  0  0  0
    6.5714    2.7620    0.0000 C   0  0  0  0  0  0  0  0  0
    5.7447    2.8237    0.0000 C   0  0  0  0  0  0  0  0  0
    5.5371    1.9183    0.0000 C   0  0  0  0  0  0  0  0  0
    4.9757    1.4795    0.0000 N   0  0  0  0  0  0  0  0  0
    5.7986    1.4202    0.0000 C   0  0  0  0  0  0  0  0  0
    6.3655    0.7447    0.0000 C   0  0  0  0  0  0  0  0  0
    6.1483    1.4373    0.0000 C   0  0  0  0  0  0  0  0  0
    6.0315    2.3636    0.0000 C   0  0  0  0  0  0  0  0  0
    6.7177    1.9055    0.0000 C   0  0  0  0  0  0  0  0  0
    7.4574    2.2708    0.0000 O   0  0  0  0  0  0  0  0  0
    8.1436    1.8127    0.0000 C   0  0  0  0  0  0  0  0  0
    8.0900    0.9895    0.0000 C   0  0  0  0  0  0  0  0  0
    8.7245    0.4622    0.0000 N   0  0  0  0  0  0  0  0  0
    8.4192   -0.3042    0.0000 N   0  0  0  0  0  0  0  0  0
    7.5959   -0.2506    0.0000 N   0  0  0  0  0  0  0  0  0
    7.3925    0.5489    0.0000 C   0  0  0  0  0  0  0  0  0
    7.0687   -0.8851    0.0000 C   0  0  0  0  0  0  0  0  0
    7.3546   -1.6590    0.0000 C   0  0  0  0  0  0  0  0  0
    6.8273   -2.2935    0.0000 O   0  0  0  0  0  0  0  0  0
    7.1132   -3.0674    0.0000 C   0  0  0  0  0  0  0  0  0
    7.9264   -3.2068    0.0000 O   0  0  0  0  0  0  0  0  0
    6.5860   -3.7020    0.0000 C   0  0  0  0  0  0  0  0  0
    5.6572   -3.7175    0.0000 C   0  0  0  0  0  0  0  0  0
    5.0966   -3.2776    0.0000 N   0  0  0  0  0  0  0  0  0
    5.2363   -4.0907    0.0000 C   0  0  0  0  0  0  0  0  0
    6.2080   -4.0907    0.0000 C   0  0  0  0  0  0  0  0  0
    6.7242   -4.5194    0.0000 C   0  0  0  0  0  0  0  0  0
    7.1360   -5.2342    0.0000 C   0  0  0  0  0  0  0  0  0
    7.9610   -5.2351    0.0000 C   0  0  0  0  0  0  0  0  0
    8.3728   -5.9499    0.0000 C   0  0  0  0  0  0  0  0  0
    7.9596   -6.6640    0.0000 C   0  0  0  0  0  0  0  0  0
    8.3714   -7.3789    0.0000 Cl  0  0  0  0  0  0  0  0  0
    7.1346   -6.6632    0.0000 C   0  0  0  0  0  0  0  0  0
    6.7228   -5.9483    0.0000 C   0  0  0  0  0  0  0  0  0
    4.7164   -4.8030    0.0000 C   0  0  0  0  0  0  0  0  0
    5.3367   -4.4261    0.0000 C   0  0  0  0  0  0  0  0  0
    4.6740   -2.5690    0.0000 C   0  0  0  0  0  0  0  0  0
    6.6641    1.0823    0.0000 O   0  0  0  0  0  0  0  0  0
    4.1865    1.2390    0.0000 C   0  0  0  0  0  0  0  0  0
  1  2  1  0  0  0  0
  2  3  4  0  0  0  0
  2  7  4  0  0  0  0
  3  4  4  0  0  0  0
  4  5  4  0  0  0  0
  5  6  4  0  0  0  0
  5  8  1  0  0  0  0
  6  7  4  0  0  0  0
  8  9  1  0  0  0  0
  8 15  1  0  0  0  0
  9 10  1  0  0  0  0
 10 11  1  0  0  0  0
 10 14  1  0  0  0  0
 11 12  1  0  0  0  0
 11 46  1  0  0  0  0
 12 13  1  0  0  0  0
 12 15  1  0  0  0  0
 13 14  1  0  0  0  0
 15 16  1  0  0  0  0
 16 17  1  0  0  0  0
 16 45  2  0  0  0  0
 17 18  1  0  0  0  0
 18 19  1  0  0  0  0
 19 20  4  0  0  0  0
 19 23  4  0  0  0  0
 20 21  4  0  0  0  0
 21 22  4  0  0  0  0
 22 23  4  0  0  0  0
 22 24  1  0  0  0  0
 24 25  1  0  0  0  0
 25 26  1  0  0  0  0
 26 27  1  0  0  0  0
 27 28  2  0  0  0  0
 27 29  1  0  0  0  0
 29 30  1  0  0  0  0
 29 34  1  0  0  0  0
 30 31  1  0  0  0  0
 30 43  1  0  0  0  0
 31 32  1  0  0  0  0
 31 44  1  0  0  0  0
 32 33  1  0  0  0  0
 32 42  1  0  0  0  0
 33 34  1  0  0  0  0
 34 35  1  0  0  0  0
 35 36  4  0  0  0  0
 35 41  4  0  0  0  0
 36 37  4  0  0  0  0
 37 38  4  0  0  0  0
 38 39  1  0  0  0  0
 38 40  4  0  0  0  0
 40 41  4  0  0  0  0
 42 43  1  0  0  0  0
M  END
>  <Name_Molregno>
593277

>  <Dopamine transporter>
7.8

>  <Norepinephrine transporter>
6.92

>  <Serotonin transporter>
7.57

$$$$
593295
  Marvin  02231216192D 0   1.00000     0.00000     0

 50 56  0  0  1  0  0  0  0  0999 V2000
   -7.8573    3.5068    0.0000 Cl  0  0  0  0  0  0  0  0  0
   -7.1009    3.1775    0.0000 C   0  0  0  0  0  0  0  0  0
   -6.4375    3.6680    0.0000 C   0  0  0  0  0  0  0  0  0
   -5.6810    3.3387    0.0000 C   0  0  0  0  0  0  0  0  0
   -5.5880    2.5190    0.0000 C   0  0  0  0  0  0  0  0  0
   -6.2513    2.0285    0.0000 C   0  0  0  0  0  0  0  0  0
   -7.0078    2.3578    0.0000 C   0  0  0  0  0  0  0  0  0
   -4.8315    2.1897    0.0000 C   0  0  0  0  0  0  0  0  0
   -4.0038    2.1438    0.0000 C   0  0  0  0  0  0  0  0  0
   -3.9153    1.2191    0.0000 C   0  0  0  0  0  0  0  0  0
   -3.4155    0.7112    0.0000 N   0  0  0  0  0  0  0  0  0
   -4.2391    0.7591    0.0000 C   0  0  0  0  0  0  0  0  0
   -4.8888    0.1628    0.0000 C   0  0  0  0  0  0  0  0  0
   -4.5836    0.8214    0.0000 C   0  0  0  0  0  0  0  0  0
   -4.3478    1.7247    0.0000 C   0  0  0  0  0  0  0  0  0
   -5.0875    1.3595    0.0000 C   0  0  0  0  0  0  0  0  0
   -5.1411    0.5362    0.0000 O   0  0  0  0  0  0  0  0  0
   -5.8809    0.1710    0.0000 C   0  0  0  0  0  0  0  0  0
   -5.9344   -0.6522    0.0000 C   0  0  0  0  0  0  0  0  0
   -5.2999   -1.1795    0.0000 N   0  0  0  0  0  0  0  0  0
   -5.6053   -1.9459    0.0000 N   0  0  0  0  0  0  0  0  0
   -6.4285   -1.8923    0.0000 N   0  0  0  0  0  0  0  0  0
   -6.6320   -1.0928    0.0000 C   0  0  0  0  0  0  0  0  0
   -6.9558   -2.5269    0.0000 C   0  0  0  0  0  0  0  0  0
   -6.6699   -3.3007    0.0000 C   0  0  0  0  0  0  0  0  0
   -7.1971   -3.9353    0.0000 C   0  0  0  0  0  0  0  0  0
   -6.9112   -4.7091    0.0000 C   0  0  0  0  0  0  0  0  0
   -7.4385   -5.3437    0.0000 C   0  0  0  0  0  0  0  0  0
   -7.1525   -6.1176    0.0000 C   0  0  0  0  0  0  0  0  0
   -7.6798   -6.7521    0.0000 O   0  0  0  0  0  0  0  0  0
   -7.3939   -7.5260    0.0000 C   0  0  0  0  0  0  0  0  0
   -6.5807   -7.6653    0.0000 O   0  0  0  0  0  0  0  0  0
   -7.9211   -8.1605    0.0000 C   0  0  0  0  0  0  0  0  0
   -8.8499   -8.1760    0.0000 C   0  0  0  0  0  0  0  0  0
   -9.4105   -7.7361    0.0000 N   0  0  0  0  0  0  0  0  0
   -9.2708   -8.5492    0.0000 C   0  0  0  0  0  0  0  0  0
   -8.2991   -8.5492    0.0000 C   0  0  0  0  0  0  0  0  0
   -7.7829   -8.9779    0.0000 C   0  0  0  0  0  0  0  0  0
   -7.3711   -9.6928    0.0000 C   0  0  0  0  0  0  0  0  0
   -6.5461   -9.6936    0.0000 C   0  0  0  0  0  0  0  0  0
   -6.1344  -10.4085    0.0000 C   0  0  0  0  0  0  0  0  0
   -6.5476  -11.1225    0.0000 C   0  0  0  0  0  0  0  0  0
   -6.1358  -11.8374    0.0000 Cl  0  0  0  0  0  0  0  0  0
   -7.3726  -11.1217    0.0000 C   0  0  0  0  0  0  0  0  0
   -7.7844  -10.4068    0.0000 C   0  0  0  0  0  0  0  0  0
   -9.7907   -9.2615    0.0000 C   0  0  0  0  0  0  0  0  0
   -9.1704   -8.8846    0.0000 C   0  0  0  0  0  0  0  0  0
   -9.8331   -7.0276    0.0000 C   0  0  0  0  0  0  0  0  0
   -5.7737    1.8175    0.0000 O   0  0  0  0  0  0  0  0  0
   -2.6641    0.3705    0.0000 C   0  0  0  0  0  0  0  0  0
  1  2  1  0  0  0  0
  2  3  4  0  0  0  0
  2  7  4  0  0  0  0
  3  4  4  0  0  0  0
  4  5  4  0  0  0  0
  5  6  4  0  0  0  0
  5  8  1  0  0  0  0
  6  7  4  0  0  0  0
  8  9  1  0  0  0  0
  8 15  1  0  0  0  0
  9 10  1  0  0  0  0
 10 11  1  0  0  0  0
 10 14  1  0  0  0  0
 11 12  1  0  0  0  0
 11 50  1  0  0  0  0
 12 13  1  0  0  0  0
 12 15  1  0  0  0  0
 13 14  1  0  0  0  0
 15 16  1  0  0  0  0
 16 17  1  0  0  0  0
 16 49  2  0  0  0  0
 17 18  1  0  0  0  0
 18 19  1  0  0  0  0
 19 20  4  0  0  0  0
 19 23  4  0  0  0  0
 20 21  4  0  0  0  0
 21 22  4  0  0  0  0
 22 23  4  0  0  0  0
 22 24  1  0  0  0  0
 24 25  1  0  0  0  0
 25 26  1  0  0  0  0
 26 27  1  0  0  0  0
 27 28  1  0  0  0  0
 28 29  1  0  0  0  0
 29 30  1  0  0  0  0
 30 31  1  0  0  0  0
 31 32  2  0  0  0  0
 31 33  1  0  0  0  0
 33 34  1  0  0  0  0
 33 38  1  0  0  0  0
 34 35  1  0  0  0  0
 34 47  1  0  0  0  0
 35 36  1  0  0  0  0
 35 48  1  0  0  0  0
 36 37  1  0  0  0  0
 36 46  1  0  0  0  0
 37 38  1  0  0  0  0
 38 39  1  0  0  0  0
 39 40  4  0  0  0  0
 39 45  4  0  0  0  0
 40 41  4  0  0  0  0
 41 42  4  0  0  0  0
 42 43  1  0  0  0  0
 42 44  4  0  0  0  0
 44 45  4  0  0  0  0
 46 47  1  0  0  0  0
M  END
>  <Name_Molregno>
593295

>  <Dopamine transporter>
9

>  <Norepinephrine transporter>
8.07

>  <Serotonin transporter>
9.07

$$$$
593296
  Marvin  02231216192D 0   1.00000     0.00000     0

 51 57  0  0  1  0  0  0  0  0999 V2000
  -10.8752   -0.1002    0.0000 Cl  0  0  0  0  0  0  0  0  0
  -10.2118    0.3903    0.0000 C   0  0  0  0  0  0  0  0  0
  -10.3049    1.2100    0.0000 C   0  0  0  0  0  0  0  0  0
   -9.6415    1.7005    0.0000 C   0  0  0  0  0  0  0  0  0
   -8.8851    1.3712    0.0000 C   0  0  0  0  0  0  0  0  0
   -8.7920    0.5515    0.0000 C   0  0  0  0  0  0  0  0  0
   -9.4554    0.0610    0.0000 C   0  0  0  0  0  0  0  0  0
   -8.2217    1.8617    0.0000 C   0  0  0  0  0  0  0  0  0
   -7.7681    2.5556    0.0000 C   0  0  0  0  0  0  0  0  0
   -6.9230    2.1698    0.0000 C   0  0  0  0  0  0  0  0  0
   -6.2333    2.3488    0.0000 N   0  0  0  0  0  0  0  0  0
   -6.6865    1.6594    0.0000 C   0  0  0  0  0  0  0  0  0
   -6.4950    0.7986    0.0000 C   0  0  0  0  0  0  0  0  0
   -6.9127    1.3922    0.0000 C   0  0  0  0  0  0  0  0  0
   -7.5771    2.0481    0.0000 C   0  0  0  0  0  0  0  0  0
   -7.6307    1.2249    0.0000 C   0  0  0  0  0  0  0  0  0
   -6.9445    0.7668    0.0000 O   0  0  0  0  0  0  0  0  0
   -6.9981   -0.0564    0.0000 C   0  0  0  0  0  0  0  0  0
   -6.3119   -0.5145    0.0000 C   0  0  0  0  0  0  0  0  0
   -5.5380   -0.2286    0.0000 N   0  0  0  0  0  0  0  0  0
   -5.0270   -0.8762    0.0000 N   0  0  0  0  0  0  0  0  0
   -5.4850   -1.5624    0.0000 N   0  0  0  0  0  0  0  0  0
   -6.2792   -1.3388    0.0000 C   0  0  0  0  0  0  0  0  0
   -5.1991   -2.3363    0.0000 C   0  0  0  0  0  0  0  0  0
   -5.7264   -2.9708    0.0000 C   0  0  0  0  0  0  0  0  0
   -5.4405   -3.7447    0.0000 C   0  0  0  0  0  0  0  0  0
   -5.9677   -4.3792    0.0000 C   0  0  0  0  0  0  0  0  0
   -5.6818   -5.1531    0.0000 C   0  0  0  0  0  0  0  0  0
   -6.2091   -5.7876    0.0000 C   0  0  0  0  0  0  0  0  0
   -5.9232   -6.5615    0.0000 C   0  0  0  0  0  0  0  0  0
   -6.4504   -7.1960    0.0000 O   0  0  0  0  0  0  0  0  0
   -6.1645   -7.9699    0.0000 C   0  0  0  0  0  0  0  0  0
   -5.3514   -8.1093    0.0000 O   0  0  0  0  0  0  0  0  0
   -6.6918   -8.6045    0.0000 C   0  0  0  0  0  0  0  0  0
   -7.6206   -8.6200    0.0000 C   0  0  0  0  0  0  0  0  0
   -8.1812   -8.1801    0.0000 N   0  0  0  0  0  0  0  0  0
   -8.0415   -8.9932    0.0000 C   0  0  0  0  0  0  0  0  0
   -7.0698   -8.9932    0.0000 C   0  0  0  0  0  0  0  0  0
   -6.5536   -9.4219    0.0000 C   0  0  0  0  0  0  0  0  0
   -6.1418  -10.1367    0.0000 C   0  0  0  0  0  0  0  0  0
   -5.3168  -10.1375    0.0000 C   0  0  0  0  0  0  0  0  0
   -4.9050  -10.8524    0.0000 C   0  0  0  0  0  0  0  0  0
   -5.3182  -11.5665    0.0000 C   0  0  0  0  0  0  0  0  0
   -4.9064  -12.2814    0.0000 Cl  0  0  0  0  0  0  0  0  0
   -6.1432  -11.5657    0.0000 C   0  0  0  0  0  0  0  0  0
   -6.5550  -10.8508    0.0000 C   0  0  0  0  0  0  0  0  0
   -8.5614   -9.7055    0.0000 C   0  0  0  0  0  0  0  0  0
   -7.9411   -9.3286    0.0000 C   0  0  0  0  0  0  0  0  0
   -8.6038   -7.4715    0.0000 C   0  0  0  0  0  0  0  0  0
   -8.3704    0.8596    0.0000 O   0  0  0  0  0  0  0  0  0
   -5.5625    2.8291    0.0000 C   0  0  0  0  0  0  0  0  0
  1  2  1  0  0  0  0
  2  3  4  0  0  0  0
  2  7  4  0  0  0  0
  3  4  4  0  0  0  0
  4  5  4  0  0  0  0
  5  6  4  0  0  0  0
  5  8  1  0  0  0  0
  6  7  4  0  0  0  0
  8  9  1  0  0  0  0
  8 15  1  0  0  0  0
  9 10  1  0  0  0  0
 10 11  1  0  0  0  0
 10 14  1  0  0  0  0
 11 12  1  0  0  0  0
 11 51  1  0  0  0  0
 12 13  1  0  0  0  0
 12 15  1  0  0  0  0
 13 14  1  0  0  0  0
 15 16  1  0  0  0  0
 16 17  1  0  0  0  0
 16 50  2  0  0  0  0
 17 18  1  0  0  0  0
 18 19  1  0  0  0  0
 19 20  4  0  0  0  0
 19 23  4  0  0  0  0
 20 21  4  0  0  0  0
 21 22  4  0  0  0  0
 22 23  4  0  0  0  0
 22 24  1  0  0  0  0
 24 25  1  0  0  0  0
 25 26  1  0  0  0  0
 26 27  1  0  0  0  0
 27 28  1  0  0  0  0
 28 29  1  0  0  0  0
 29 30  1  0  0  0  0
 30 31  1  0  0  0  0
 31 32  1  0  0  0  0
 32 33  2  0  0  0  0
 32 34  1  0  0  0  0
 34 35  1  0  0  0  0
 34 39  1  0  0  0  0
 35 36  1  0  0  0  0
 35 48  1  0  0  0  0
 36 37  1  0  0  0  0
 36 49  1  0  0  0  0
 37 38  1  0  0  0  0
 37 47  1  0  0  0  0
 38 39  1  0  0  0  0
 39 40  1  0  0  0  0
 40 41  4  0  0  0  0
 40 46  4  0  0  0  0
 41 42  4  0  0  0  0
 42 43  4  0  0  0  0
 43 44  1  0  0  0  0
 43 45  4  0  0  0  0
 45 46  4  0  0  0  0
 47 48  1  0  0  0  0
M  END
>  <Name_Molregno>
593296

>  <Dopamine transporter>
8.41

>  <Norepinephrine transporter>
7.7

>  <Serotonin transporter>
8.46

$$$$
593297
  Marvin  02231216192D 0   1.00000     0.00000     0

 29 32  0  0  1  0  0  0  0  0999 V2000
    3.9021   -0.5268    0.0000 Cl  0  0  0  0  0  0  0  0  0
    3.4903    0.1881    0.0000 C   0  0  0  0  0  0  0  0  0
    2.6653    0.1889    0.0000 C   0  0  0  0  0  0  0  0  0
    2.2535    0.9038    0.0000 C   0  0  0  0  0  0  0  0  0
    2.6668    1.6178    0.0000 C   0  0  0  0  0  0  0  0  0
    3.4918    1.6170    0.0000 C   0  0  0  0  0  0  0  0  0
    3.9035    0.9021    0.0000 C   0  0  0  0  0  0  0  0  0
    2.2550    2.3327    0.0000 C   0  0  0  0  0  0  0  0  0
    2.1168    3.1501    0.0000 C   0  0  0  0  0  0  0  0  0
    1.1880    3.1346    0.0000 C   0  0  0  0  0  0  0  0  0
    0.6274    3.5745    0.0000 N   0  0  0  0  0  0  0  0  0
    0.7671    2.7614    0.0000 C   0  0  0  0  0  0  0  0  0
    0.2472    2.0491    0.0000 C   0  0  0  0  0  0  0  0  0
    0.8675    2.4260    0.0000 C   0  0  0  0  0  0  0  0  0
    1.7388    2.7614    0.0000 C   0  0  0  0  0  0  0  0  0
    2.1643    3.6255    0.0000 C   0  0  0  0  0  0  0  0  0
    2.9235    4.0264    0.0000 O   0  0  0  0  0  0  0  0  0
    3.3183    4.7481    0.0000 C   0  0  0  0  0  0  0  0  0
    4.1085    4.6549    0.0000 C   0  0  0  0  0  0  0  0  0
    4.3404    5.4578    0.0000 C   0  0  0  0  0  0  0  0  0
    5.1537    5.6900    0.0000 C   0  0  0  0  0  0  0  0  0
    5.4782    6.4580    0.0000 C   0  0  0  0  0  0  0  0  0
    6.2969    6.5600    0.0000 N   0  0  0  0  0  0  0  0  0
    6.6956    7.2822    0.0000 N   0  0  0  0  0  0  0  0  0
    7.5057    7.1262    0.0000 N   0  0  0  0  0  0  0  0  0
    7.6077    6.3075    0.0000 C   0  0  0  0  0  0  0  0  0
    6.8605    5.9575    0.0000 C   0  0  0  0  0  0  0  0  0
    2.1307    4.5544    0.0000 O   0  0  0  0  0  0  0  0  0
    0.1473    4.2907    0.0000 C   0  0  0  0  0  0  0  0  0
  1  2  1  0  0  0  0
  2  3  4  0  0  0  0
  2  7  4  0  0  0  0
  3  4  4  0  0  0  0
  4  5  4  0  0  0  0
  5  6  4  0  0  0  0
  5  8  1  0  0  0  0
  6  7  4  0  0  0  0
  8  9  1  0  0  0  0
  8 15  1  0  0  0  0
  9 10  1  0  0  0  0
 10 11  1  0  0  0  0
 10 14  1  0  0  0  0
 11 12  1  0  0  0  0
 11 29  1  0  0  0  0
 12 13  1  0  0  0  0
 12 15  1  0  0  0  0
 13 14  1  0  0  0  0
 15 16  1  0  0  0  0
 16 17  1  0  0  0  0
 16 28  2  0  0  0  0
 17 18  1  0  0  0  0
 18 19  1  0  0  0  0
 19 20  1  0  0  0  0
 20 21  1  0  0  0  0
 21 22  1  0  0  0  0
 22 23  1  0  0  0  0
 23 24  4  0  0  0  0
 23 27  4  0  0  0  0
 24 25  4  0  0  0  0
 25 26  4  0  0  0  0
 26 27  4  0  0  0  0
M  END
>  <Name_Molregno>
593297

>  <Dopamine transporter>
8.26

>  <Norepinephrine transporter>
6.42

>  <Serotonin transporter>
7.7

$$$$
593611
  Marvin  02231216192D 0   1.00000     0.00000     0

 23 25  0  0  1  0  0  0  0  0999 V2000
    2.4953   -1.7278    0.0000 O   0  0  0  0  0  0  0  0  0
    2.4953   -2.5528    0.0000 C   0  0  0  0  0  0  0  0  0
    1.7808   -2.9653    0.0000 C   0  0  0  0  0  0  0  0  0
    1.0664   -2.5528    0.0000 N   0  0  0  0  0  0  0  0  0
    1.0664   -1.7278    0.0000 C   0  0  0  0  0  0  0  0  0
    1.7808   -1.3153    0.0000 C   0  0  0  0  0  0  0  0  0
    1.7808   -0.4903    0.0000 C   0  0  0  0  0  0  0  0  0
    2.4953   -0.0778    0.0000 O   0  0  0  0  0  0  0  0  0
    2.4953    0.7472    0.0000 C   0  0  0  0  0  0  0  0  0
    1.7808    1.1597    0.0000 C   0  0  0  0  0  0  0  0  0
    1.7808    1.9847    0.0000 C   0  0  0  0  0  0  0  0  0
    2.4953    2.3972    0.0000 C   0  0  0  0  0  0  0  0  0
    3.2098    1.9847    0.0000 C   0  0  0  0  0  0  0  0  0
    3.2098    1.1597    0.0000 C   0  0  0  0  0  0  0  0  0
    3.9242    0.7472    0.0000 O   0  0  0  0  0  0  0  0  0
    3.9242   -0.0778    0.0000 C   0  0  0  0  0  0  0  0  0
    4.6387   -0.4903    0.0000 C   0  0  0  0  0  0  0  0  0
    1.0664   -0.0778    0.0000 C   0  0  0  0  0  0  0  0  0
    0.3519   -0.4903    0.0000 C   0  0  0  0  0  0  0  0  0
   -0.3626   -0.0778    0.0000 C   0  0  0  0  0  0  0  0  0
   -0.3626    0.7472    0.0000 C   0  0  0  0  0  0  0  0  0
    0.3519    1.1597    0.0000 C   0  0  0  0  0  0  0  0  0
    1.0664    0.7472    0.0000 C   0  0  0  0  0  0  0  0  0
  1  2  1  0  0  0  0
  1  6  1  0  0  0  0
  2  3  1  0  0  0  0
  3  4  1  0  0  0  0
  4  5  1  0  0  0  0
  5  6  1  0  0  0  0
  6  7  1  0  0  0  0
  7  8  1  0  0  0  0
  7 18  1  0  0  0  0
  8  9  1  0  0  0  0
  9 10  4  0  0  0  0
  9 14  4  0  0  0  0
 10 11  4  0  0  0  0
 11 12  4  0  0  0  0
 12 13  4  0  0  0  0
 13 14  4  0  0  0  0
 14 15  1  0  0  0  0
 15 16  1  0  0  0  0
 16 17  1  0  0  0  0
 18 19  4  0  0  0  0
 18 23  4  0  0  0  0
 19 20  4  0  0  0  0
 20 21  4  0  0  0  0
 21 22  4  0  0  0  0
 22 23  4  0  0  0  0
M  END
>  <Name_Molregno>
593611

>  <5-HT1A>
5

>  <5-HT1B>
5

>  <5-HT1D>
5

>  <5-HT2A>
5

>  <5-HT2C>
6.34

>  <Alpha-1A>
5

>  <Alpha-2A>
5

>  <DOPAMINE D2>
5

>  <DOPAMINE D3>
5

>  <Dopamine transporter>
5.12

>  <Norepinephrine transporter>
8.27

>  <Serotonin transporter>
6.28

$$$$
594371
  Marvin  02231216192D 0   1.00000     0.00000     0

 20 22  0  0  1  0  0  0  0  0999 V2000
    2.1593    1.9782    0.0000 S   0  0  0  0  0  0  0  0  0
    2.4142    2.7628    0.0000 C   0  0  0  0  0  0  0  0  0
    3.2392    2.7628    0.0000 C   0  0  0  0  0  0  0  0  0
    3.4941    1.9782    0.0000 C   0  0  0  0  0  0  0  0  0
    2.8267    1.4933    0.0000 C   0  0  0  0  0  0  0  0  0
    2.8267    0.6683    0.0000 C   0  0  0  0  0  0  0  0  0
    2.1122    0.2558    0.0000 O   0  0  0  0  0  0  0  0  0
    2.1122   -0.5692    0.0000 C   0  0  0  0  0  0  0  0  0
    1.3978   -0.9817    0.0000 C   0  0  0  0  0  0  0  0  0
    1.3978   -1.8067    0.0000 C   0  0  0  0  0  0  0  0  0
    2.1122   -2.2192    0.0000 C   0  0  0  0  0  0  0  0  0
    2.8267   -1.8067    0.0000 C   0  0  0  0  0  0  0  0  0
    2.8267   -0.9817    0.0000 C   0  0  0  0  0  0  0  0  0
    0.6833   -2.2192    0.0000 C   0  0  0  0  0  0  0  0  0
   -0.0312   -1.8067    0.0000 C   0  0  0  0  0  0  0  0  0
   -0.0312   -0.9817    0.0000 C   0  0  0  0  0  0  0  0  0
    0.6833   -0.5692    0.0000 C   0  0  0  0  0  0  0  0  0
    3.5412    0.2558    0.0000 C   0  0  0  0  0  0  0  0  0
    4.2556    0.6683    0.0000 C   0  0  0  0  0  0  0  0  0
    4.9701    0.2558    0.0000 N   0  0  0  0  0  0  0  0  0
  1  2  4  0  0  0  0
  1  5  4  0  0  0  0
  2  3  4  0  0  0  0
  3  4  4  0  0  0  0
  4  5  4  0  0  0  0
  5  6  1  0  0  0  0
  6  7  1  0  0  0  0
  6 18  1  0  0  0  0
  7  8  1  0  0  0  0
  8  9  4  0  0  0  0
  8 13  4  0  0  0  0
  9 10  4  0  0  0  0
  9 17  4  0  0  0  0
 10 11  4  0  0  0  0
 10 14  4  0  0  0  0
 11 12  4  0  0  0  0
 12 13  4  0  0  0  0
 14 15  4  0  0  0  0
 15 16  4  0  0  0  0
 16 17  4  0  0  0  0
 18 19  1  0  0  0  0
 19 20  1  0  0  0  0
M  END
>  <Name_Molregno>
594371

>  <Dopamine transporter>
5.22

>  <Norepinephrine transporter>
5.82

>  <Serotonin transporter>
7.91

$$$$
594381
  Marvin  02231216192D 0   1.00000     0.00000     0

 46 51  0  0  1  0  0  0  0  0999 V2000
   -5.2791   -4.6481    0.0000 S   0  0  0  0  0  0  0  0  0
   -5.5341   -5.4327    0.0000 C   0  0  0  0  0  0  0  0  0
   -6.3591   -5.4327    0.0000 C   0  0  0  0  0  0  0  0  0
   -6.6140   -4.6481    0.0000 C   0  0  0  0  0  0  0  0  0
   -5.9466   -4.1632    0.0000 C   0  0  0  0  0  0  0  0  0
   -5.9466   -3.3382    0.0000 C   0  0  0  0  0  0  0  0  0
   -6.6610   -2.9257    0.0000 O   0  0  0  0  0  0  0  0  0
   -7.3755   -3.3382    0.0000 C   0  0  0  0  0  0  0  0  0
   -8.0900   -2.9257    0.0000 C   0  0  0  0  0  0  0  0  0
   -8.8045   -3.3382    0.0000 C   0  0  0  0  0  0  0  0  0
   -8.8045   -4.1632    0.0000 C   0  0  0  0  0  0  0  0  0
   -8.0900   -4.5757    0.0000 C   0  0  0  0  0  0  0  0  0
   -7.3755   -4.1632    0.0000 C   0  0  0  0  0  0  0  0  0
   -9.5189   -2.9257    0.0000 C   0  0  0  0  0  0  0  0  0
   -9.5189   -2.1007    0.0000 C   0  0  0  0  0  0  0  0  0
   -8.8045   -1.6882    0.0000 C   0  0  0  0  0  0  0  0  0
   -8.0900   -2.1007    0.0000 C   0  0  0  0  0  0  0  0  0
   -5.2321   -2.9257    0.0000 C   0  0  0  0  0  0  0  0  0
   -4.5176   -3.3382    0.0000 C   0  0  0  0  0  0  0  0  0
   -3.8032   -2.9257    0.0000 N   0  0  0  0  0  0  0  0  0
   -3.0887   -3.3382    0.0000 C   0  0  0  0  0  0  0  0  0
   -2.3742   -2.9257    0.0000 C   0  0  0  0  0  0  0  0  0
   -1.6598   -3.3382    0.0000 C   0  0  0  0  0  0  0  0  0
   -0.9453   -2.9257    0.0000 C   0  0  0  0  0  0  0  0  0
   -0.2308   -3.3382    0.0000 C   0  0  0  0  0  0  0  0  0
    0.4837   -2.9257    0.0000 N   0  0  0  0  0  0  0  0  0
    1.1981   -3.3382    0.0000 N   0  0  0  0  0  0  0  0  0
    1.9126   -2.9257    0.0000 C   0  0  0  0  0  0  0  0  0
    1.9126   -2.1007    0.0000 C   0  0  0  0  0  0  0  0  0
    1.1981   -1.6882    0.0000 C   0  0  0  0  0  0  0  0  0
    1.1981   -0.8632    0.0000 C   0  0  0  0  0  0  0  0  0
    1.9126   -0.4507    0.0000 C   0  0  0  0  0  0  0  0  0
    2.6271   -0.8632    0.0000 C   0  0  0  0  0  0  0  0  0
    2.6271   -1.6882    0.0000 C   0  0  0  0  0  0  0  0  0
    0.4837   -2.1007    0.0000 C   0  0  0  0  0  0  0  0  0
   -0.2308   -1.6882    0.0000 O   0  0  0  0  0  0  0  0  0
    2.6271   -3.3382    0.0000 C   0  0  0  0  0  0  0  0  0
    3.3415   -2.9257    0.0000 C   0  0  0  0  0  0  0  0  0
    4.0560   -3.3382    0.0000 C   0  0  0  0  0  0  0  0  0
    4.7705   -2.9257    0.0000 O   0  0  0  0  0  0  0  0  0
    5.4850   -3.3382    0.0000 C   0  0  0  0  0  0  0  0  0
    4.0560   -4.1632    0.0000 C   0  0  0  0  0  0  0  0  0
    4.7705   -4.5757    0.0000 O   0  0  0  0  0  0  0  0  0
    5.4850   -4.1632    0.0000 C   0  0  0  0  0  0  0  0  0
    3.3415   -4.5757    0.0000 C   0  0  0  0  0  0  0  0  0
    2.6271   -4.1632    0.0000 C   0  0  0  0  0  0  0  0  0
  1  2  4  0  0  0  0
  1  5  4  0  0  0  0
  2  3  4  0  0  0  0
  3  4  4  0  0  0  0
  4  5  4  0  0  0  0
  5  6  1  0  0  0  0
  6  7  1  0  0  0  0
  6 18  1  0  0  0  0
  7  8  1  0  0  0  0
  8  9  4  0  0  0  0
  8 13  4  0  0  0  0
  9 10  4  0  0  0  0
  9 17  4  0  0  0  0
 10 11  4  0  0  0  0
 10 14  4  0  0  0  0
 11 12  4  0  0  0  0
 12 13  4  0  0  0  0
 14 15  4  0  0  0  0
 15 16  4  0  0  0  0
 16 17  4  0  0  0  0
 18 19  1  0  0  0  0
 19 20  1  0  0  0  0
 20 21  1  0  0  0  0
 21 22  1  0  0  0  0
 22 23  1  0  0  0  0
 23 24  1  0  0  0  0
 24 25  1  0  0  0  0
 25 26  1  0  0  0  0
 26 27  1  0  0  0  0
 26 35  1  0  0  0  0
 27 28  2  0  0  0  0
 28 29  1  0  0  0  0
 28 37  1  0  0  0  0
 29 30  1  0  0  0  0
 29 34  1  0  0  0  0
 30 31  1  0  0  0  0
 30 35  1  0  0  0  0
 31 32  1  0  0  0  0
 32 33  2  0  0  0  0
 33 34  1  0  0  0  0
 35 36  2  0  0  0  0
 37 38  4  0  0  0  0
 37 46  4  0  0  0  0
 38 39  4  0  0  0  0
 39 40  1  0  0  0  0
 39 42  4  0  0  0  0
 40 41  1  0  0  0  0
 42 43  1  0  0  0  0
 42 45  4  0  0  0  0
 43 44  1  0  0  0  0
 45 46  4  0  0  0  0
M  END
>  <Name_Molregno>
594381

>  <Dopamine transporter>
5.71

>  <Norepinephrine transporter>
4.74

>  <Serotonin transporter>
6.52

$$$$
594448
  Marvin  02231216192D 0   1.00000     0.00000     0

 24 27  0  0  1  0  0  0  0  0999 V2000
   -0.1249   -0.5370    0.0000 O   0  0  0  0  0  0  0  0  0
    0.6852   -0.6929    0.0000 C   0  0  0  0  0  0  0  0  0
   -0.3950    0.2426    0.0000 C   0  0  0  0  0  0  0  0  0
   -1.2051    0.3985    0.0000 C   0  0  0  0  0  0  0  0  0
   -1.4751    1.1780    0.0000 C   0  0  0  0  0  0  0  0  0
   -2.2853    1.3340    0.0000 C   0  0  0  0  0  0  0  0  0
   -2.8254    0.7103    0.0000 C   0  0  0  0  0  0  0  0  0
   -2.5553   -0.0692    0.0000 N   0  0  0  0  0  0  0  0  0
   -1.7452   -0.2251    0.0000 C   0  0  0  0  0  0  0  0  0
   -3.0954   -0.6929    0.0000 C   0  0  0  0  0  0  0  0  0
   -3.9055   -0.5370    0.0000 C   0  0  0  0  0  0  0  0  0
   -4.1756    0.2426    0.0000 C   0  0  0  0  0  0  0  0  0
   -4.9857    0.3985    0.0000 C   0  0  0  0  0  0  0  0  0
   -5.2558    1.1780    0.0000 C   0  0  0  0  0  0  0  0  0
   -6.0659    1.3340    0.0000 O   0  0  0  0  0  0  0  0  0
   -6.6060    0.7103    0.0000 C   0  0  0  0  0  0  0  0  0
   -4.7157    1.8017    0.0000 C   0  0  0  0  0  0  0  0  0
   -4.9857    2.5812    0.0000 O   0  0  0  0  0  0  0  0  0
   -3.9055    1.6458    0.0000 C   0  0  0  0  0  0  0  0  0
   -3.6355    0.8662    0.0000 C   0  0  0  0  0  0  0  0  0
   -0.9351    1.8017    0.0000 C   0  0  0  0  0  0  0  0  0
   -0.1249    1.6458    0.0000 C   0  0  0  0  0  0  0  0  0
    0.1451    0.8662    0.0000 C   0  0  0  0  0  0  0  0  0
    0.9553    0.7103    0.0000 O   0  0  0  0  0  0  0  0  0
  1  2  1  0  0  0  0
  1  3  1  0  0  0  0
  3  4  4  0  0  0  0
  3 23  4  0  0  0  0
  4  5  4  0  0  0  0
  4  9  1  0  0  0  0
  5  6  1  0  0  0  0
  5 21  4  0  0  0  0
  6  7  1  0  0  0  0
  7  8  1  0  0  0  0
  7 20  1  0  0  0  0
  8  9  1  0  0  0  0
  8 10  1  0  0  0  0
 10 11  1  0  0  0  0
 11 12  1  0  0  0  0
 12 13  4  0  0  0  0
 12 20  4  0  0  0  0
 13 14  4  0  0  0  0
 14 15  1  0  0  0  0
 14 17  4  0  0  0  0
 15 16  1  0  0  0  0
 17 18  1  0  0  0  0
 17 19  4  0  0  0  0
 19 20  4  0  0  0  0
 21 22  4  0  0  0  0
 22 23  4  0  0  0  0
 23 24  1  0  0  0  0
M  END
>  <Name_Molregno>
594448

>  <5-HT1A>
6.84

>  <5-HT1B>
5.16

>  <5-HT1D>
5

>  <5-HT1E>
5

>  <5-HT2A>
5

>  <5-HT3>
5

>  <5-HT5>
5

>  <5-HT6>
5

>  <5-HT7>
5

>  <Alpha-1A>
5

>  <Alpha-1B>
5

>  <Alpha-2A>
5

>  <Alpha-2B>
5.16

>  <Alpha-2C>
6.67

>  <Beta-1>
5

>  <Beta-2>
5

>  <DOPAMINE D1>
8.23

>  <DOPAMINE D2>
6.01

>  <DOPAMINE D4>
5.43

>  <DOPAMINE D5>
8.36

>  <Dopamine transporter>
5

>  <HISTAMINE H1>
5

>  <HISTAMINE H2>
5

>  <HISTAMINE H4>
5

>  <Muscarinic acetylcholine receptor M2>
5

>  <Muscarinic acetylcholine receptor M5>
5

>  <Norepinephrine transporter>
5

>  <Serotonin transporter>
5

$$$$
596409
  Marvin  02231216192D 0   1.00000     0.00000     0

 16 18  0  0  1  0  0  0  0  0999 V2000
   -0.1101   -2.4730    0.0000 Cl  0  0  0  0  0  0  0  0  0
    0.7104   -2.3868    0.0000 C   0  0  0  0  0  0  0  0  0
    1.0460   -1.6331    0.0000 C   0  0  0  0  0  0  0  0  0
    1.8665   -1.5469    0.0000 C   0  0  0  0  0  0  0  0  0
    2.3514   -2.2143    0.0000 C   0  0  0  0  0  0  0  0  0
    2.0158   -2.9680    0.0000 C   0  0  0  0  0  0  0  0  0
    1.1953   -3.0542    0.0000 C   0  0  0  0  0  0  0  0  0
    0.8598   -3.8079    0.0000 Cl  0  0  0  0  0  0  0  0  0
    2.2020   -0.7932    0.0000 C   0  0  0  0  0  0  0  0  0
    2.2020    0.0318    0.0000 C   0  0  0  0  0  0  0  0  0
    2.9866    0.2867    0.0000 C   0  0  0  0  0  0  0  0  0
    3.4716   -0.3807    0.0000 N   0  0  0  0  0  0  0  0  0
    2.9866   -1.0482    0.0000 C   0  0  0  0  0  0  0  0  0
    1.4875   -0.3807    0.0000 C   0  0  0  0  0  0  0  0  0
    0.6625   -0.3807    0.0000 C   0  0  0  0  0  0  0  0  0
    0.2500   -1.0952    0.0000 O   0  0  0  0  0  0  0  0  0
  1  2  1  0  0  0  0
  2  3  4  0  0  0  0
  2  7  4  0  0  0  0
  3  4  4  0  0  0  0
  4  5  4  0  0  0  0
  4  9  1  0  0  0  0
  5  6  4  0  0  0  0
  6  7  4  0  0  0  0
  7  8  1  0  0  0  0
  9 10  1  0  0  0  0
  9 13  1  0  0  0  0
  9 14  1  0  0  0  0
 10 11  1  0  0  0  0
 10 14  1  0  0  0  0
 11 12  1  0  0  0  0
 12 13  1  0  0  0  0
 14 15  1  0  0  0  0
 15 16  1  0  0  0  0
M  END
>  <Name_Molregno>
596409

>  <Dopamine transporter>
6.33

>  <Norepinephrine transporter>
7.14

>  <Serotonin transporter>
7.55

$$$$
596471
  Marvin  02231216192D 0   1.00000     0.00000     0

 17 19  0  0  1  0  0  0  0  0999 V2000
    0.6625   -0.5781    0.0000 Cl  0  0  0  0  0  0  0  0  0
    1.4830   -0.4919    0.0000 C   0  0  0  0  0  0  0  0  0
    1.8186    0.2618    0.0000 C   0  0  0  0  0  0  0  0  0
    2.6391    0.3480    0.0000 C   0  0  0  0  0  0  0  0  0
    3.1240   -0.3194    0.0000 C   0  0  0  0  0  0  0  0  0
    2.7884   -1.0731    0.0000 C   0  0  0  0  0  0  0  0  0
    1.9679   -1.1593    0.0000 C   0  0  0  0  0  0  0  0  0
    1.6324   -1.9130    0.0000 Cl  0  0  0  0  0  0  0  0  0
    2.9746    1.1017    0.0000 C   0  0  0  0  0  0  0  0  0
    2.9746    1.9267    0.0000 C   0  0  0  0  0  0  0  0  0
    3.7592    2.1817    0.0000 C   0  0  0  0  0  0  0  0  0
    4.2442    1.5142    0.0000 N   0  0  0  0  0  0  0  0  0
    3.7592    0.8468    0.0000 C   0  0  0  0  0  0  0  0  0
    2.2601    1.5142    0.0000 C   0  0  0  0  0  0  0  0  0
    1.4351    1.5142    0.0000 C   0  0  0  0  0  0  0  0  0
    1.0226    2.2287    0.0000 O   0  0  0  0  0  0  0  0  0
    0.1976    2.2287    0.0000 C   0  0  0  0  0  0  0  0  0
  1  2  1  0  0  0  0
  2  3  4  0  0  0  0
  2  7  4  0  0  0  0
  3  4  4  0  0  0  0
  4  5  4  0  0  0  0
  4  9  1  0  0  0  0
  5  6  4  0  0  0  0
  6  7  4  0  0  0  0
  7  8  1  0  0  0  0
  9 10  1  0  0  0  0
  9 13  1  0  0  0  0
  9 14  1  0  0  0  0
 10 11  1  0  0  0  0
 10 14  1  0  0  0  0
 11 12  1  0  0  0  0
 12 13  1  0  0  0  0
 14 15  1  0  0  0  0
 15 16  1  0  0  0  0
 16 17  1  0  0  0  0
M  END
>  <Name_Molregno>
596471

>  <Dopamine transporter>
6.75

>  <Norepinephrine transporter>
7.63

>  <Serotonin transporter>
8.36

$$$$
596474
  Marvin  02231216192D 0   1.00000     0.00000     0

 20 23  0  0  1  0  0  0  0  0999 V2000
    1.6425   -2.1301    0.0000 Cl  0  0  0  0  0  0  0  0  0
    2.4629   -2.0439    0.0000 C   0  0  0  0  0  0  0  0  0
    2.7985   -1.2902    0.0000 C   0  0  0  0  0  0  0  0  0
    3.6190   -1.2039    0.0000 C   0  0  0  0  0  0  0  0  0
    4.1039   -1.8714    0.0000 C   0  0  0  0  0  0  0  0  0
    3.7683   -2.6251    0.0000 C   0  0  0  0  0  0  0  0  0
    2.9479   -2.7113    0.0000 C   0  0  0  0  0  0  0  0  0
    2.6123   -3.4650    0.0000 Cl  0  0  0  0  0  0  0  0  0
    3.9545   -0.4503    0.0000 C   0  0  0  0  0  0  0  0  0
    3.9545    0.3747    0.0000 C   0  0  0  0  0  0  0  0  0
    4.7392    0.6297    0.0000 C   0  0  0  0  0  0  0  0  0
    5.2241   -0.0378    0.0000 N   0  0  0  0  0  0  0  0  0
    4.7392   -0.7052    0.0000 C   0  0  0  0  0  0  0  0  0
    3.2401   -0.0378    0.0000 C   0  0  0  0  0  0  0  0  0
    2.4151   -0.0378    0.0000 C   0  0  0  0  0  0  0  0  0
    2.0026    0.6767    0.0000 O   0  0  0  0  0  0  0  0  0
    1.1776    0.6767    0.0000 C   0  0  0  0  0  0  0  0  0
    0.7651    1.3912    0.0000 C   0  0  0  0  0  0  0  0  0
    0.0506    1.8037    0.0000 C   0  0  0  0  0  0  0  0  0
    0.7651    2.2162    0.0000 C   0  0  0  0  0  0  0  0  0
  1  2  1  0  0  0  0
  2  3  4  0  0  0  0
  2  7  4  0  0  0  0
  3  4  4  0  0  0  0
  4  5  4  0  0  0  0
  4  9  1  0  0  0  0
  5  6  4  0  0  0  0
  6  7  4  0  0  0  0
  7  8  1  0  0  0  0
  9 10  1  0  0  0  0
  9 13  1  0  0  0  0
  9 14  1  0  0  0  0
 10 11  1  0  0  0  0
 10 14  1  0  0  0  0
 11 12  1  0  0  0  0
 12 13  1  0  0  0  0
 14 15  1  0  0  0  0
 15 16  1  0  0  0  0
 16 17  1  0  0  0  0
 17 18  1  0  0  0  0
 18 19  1  0  0  0  0
 18 20  1  0  0  0  0
 19 20  1  0  0  0  0
M  END
>  <Name_Molregno>
596474

>  <Dopamine transporter>
7.13

>  <Norepinephrine transporter>
8.15

>  <Serotonin transporter>
8.58

$$$$
596542
  Marvin  02231216192D 0   1.00000     0.00000     0

 19 21  0  0  1  0  0  0  0  0999 V2000
    3.0816    2.3903    0.0000 Cl  0  0  0  0  0  0  0  0  0
    2.4142    1.9054    0.0000 C   0  0  0  0  0  0  0  0  0
    2.5004    1.0849    0.0000 C   0  0  0  0  0  0  0  0  0
    1.8330    0.6000    0.0000 C   0  0  0  0  0  0  0  0  0
    1.0793    0.9355    0.0000 C   0  0  0  0  0  0  0  0  0
    0.9931    1.7560    0.0000 C   0  0  0  0  0  0  0  0  0
    1.6605    2.2409    0.0000 C   0  0  0  0  0  0  0  0  0
    1.5743    3.0614    0.0000 Cl  0  0  0  0  0  0  0  0  0
    1.9192   -0.2205    0.0000 C   0  0  0  0  0  0  0  0  0
    2.3317   -0.9350    0.0000 C   0  0  0  0  0  0  0  0  0
    1.7797   -1.5481    0.0000 C   0  0  0  0  0  0  0  0  0
    1.0260   -1.2125    0.0000 N   0  0  0  0  0  0  0  0  0
    1.1123   -0.3920    0.0000 C   0  0  0  0  0  0  0  0  0
    2.7442   -0.2205    0.0000 C   0  0  0  0  0  0  0  0  0
    3.4587    0.1920    0.0000 C   0  0  0  0  0  0  0  0  0
    4.1732   -0.2205    0.0000 O   0  0  0  0  0  0  0  0  0
    4.8876    0.1920    0.0000 C   0  0  0  0  0  0  0  0  0
    5.6021   -0.2205    0.0000 C   0  0  0  0  0  0  0  0  0
    6.3166    0.1920    0.0000 C   0  0  0  0  0  0  0  0  0
  1  2  1  0  0  0  0
  2  3  4  0  0  0  0
  2  7  4  0  0  0  0
  3  4  4  0  0  0  0
  4  5  4  0  0  0  0
  4  9  1  0  0  0  0
  5  6  4  0  0  0  0
  6  7  4  0  0  0  0
  7  8  1  0  0  0  0
  9 10  1  0  0  0  0
  9 13  1  0  0  0  0
  9 14  1  0  0  0  0
 10 11  1  0  0  0  0
 10 14  1  0  0  0  0
 11 12  1  0  0  0  0
 12 13  1  0  0  0  0
 14 15  1  0  0  0  0
 15 16  1  0  0  0  0
 16 17  1  0  0  0  0
 17 18  1  0  0  0  0
 18 19  1  0  0  0  0
M  END
>  <Name_Molregno>
596542

>  <Dopamine transporter>
7.4

>  <Norepinephrine transporter>
8.67

>  <Serotonin transporter>
8.97

$$$$
596544
  Marvin  02231216192D 0   1.00000     0.00000     0

 18 20  0  0  1  0  0  0  0  0999 V2000
    0.9825   -1.5735    0.0000 Cl  0  0  0  0  0  0  0  0  0
    1.8030   -1.4872    0.0000 C   0  0  0  0  0  0  0  0  0
    2.1386   -0.7336    0.0000 C   0  0  0  0  0  0  0  0  0
    2.9591   -0.6473    0.0000 C   0  0  0  0  0  0  0  0  0
    3.4440   -1.3148    0.0000 C   0  0  0  0  0  0  0  0  0
    3.1084   -2.0684    0.0000 C   0  0  0  0  0  0  0  0  0
    2.2879   -2.1547    0.0000 C   0  0  0  0  0  0  0  0  0
    1.9524   -2.9084    0.0000 Cl  0  0  0  0  0  0  0  0  0
    3.2946    0.1063    0.0000 C   0  0  0  0  0  0  0  0  0
    3.2946    0.9313    0.0000 C   0  0  0  0  0  0  0  0  0
    4.0792    1.1863    0.0000 C   0  0  0  0  0  0  0  0  0
    4.5642    0.5188    0.0000 N   0  0  0  0  0  0  0  0  0
    4.0792   -0.1486    0.0000 C   0  0  0  0  0  0  0  0  0
    2.5801    0.5188    0.0000 C   0  0  0  0  0  0  0  0  0
    1.7551    0.5188    0.0000 C   0  0  0  0  0  0  0  0  0
    1.3426   -0.1956    0.0000 O   0  0  0  0  0  0  0  0  0
    0.5176   -0.1956    0.0000 C   0  0  0  0  0  0  0  0  0
    0.1051   -0.9101    0.0000 C   0  0  0  0  0  0  0  0  0
  1  2  1  0  0  0  0
  2  3  4  0  0  0  0
  2  7  4  0  0  0  0
  3  4  4  0  0  0  0
  4  5  4  0  0  0  0
  4  9  1  0  0  0  0
  5  6  4  0  0  0  0
  6  7  4  0  0  0  0
  7  8  1  0  0  0  0
  9 10  1  0  0  0  0
  9 13  1  0  0  0  0
  9 14  1  0  0  0  0
 10 11  1  0  0  0  0
 10 14  1  0  0  0  0
 11 12  1  0  0  0  0
 12 13  1  0  0  0  0
 14 15  1  0  0  0  0
 15 16  1  0  0  0  0
 16 17  1  0  0  0  0
 17 18  1  0  0  0  0
M  END
>  <Name_Molregno>
596544

>  <Dopamine transporter>
7.63

>  <Norepinephrine transporter>
8.53

>  <Serotonin transporter>
9.15

$$$$
596602
  Marvin  02231216192D 0   1.00000     0.00000     0

 19 21  0  0  1  0  0  0  0  0999 V2000
    0.7741   -0.2962    0.0000 Cl  0  0  0  0  0  0  0  0  0
    1.5946   -0.2099    0.0000 C   0  0  0  0  0  0  0  0  0
    1.9301    0.5437    0.0000 C   0  0  0  0  0  0  0  0  0
    2.7506    0.6300    0.0000 C   0  0  0  0  0  0  0  0  0
    3.2355   -0.0375    0.0000 C   0  0  0  0  0  0  0  0  0
    2.9000   -0.7911    0.0000 C   0  0  0  0  0  0  0  0  0
    2.0795   -0.8774    0.0000 C   0  0  0  0  0  0  0  0  0
    1.7439   -1.6311    0.0000 Cl  0  0  0  0  0  0  0  0  0
    3.0861    1.3836    0.0000 C   0  0  0  0  0  0  0  0  0
    3.0861    2.2086    0.0000 C   0  0  0  0  0  0  0  0  0
    3.8708    2.4636    0.0000 C   0  0  0  0  0  0  0  0  0
    4.3557    1.7961    0.0000 N   0  0  0  0  0  0  0  0  0
    3.8708    1.1287    0.0000 C   0  0  0  0  0  0  0  0  0
    5.1807    1.7961    0.0000 C   0  0  0  0  0  0  0  0  0
    2.3717    1.7961    0.0000 C   0  0  0  0  0  0  0  0  0
    1.5467    1.7961    0.0000 C   0  0  0  0  0  0  0  0  0
    1.1342    1.0817    0.0000 O   0  0  0  0  0  0  0  0  0
    0.3092    1.0817    0.0000 C   0  0  0  0  0  0  0  0  0
   -0.1033    0.3672    0.0000 C   0  0  0  0  0  0  0  0  0
  1  2  1  0  0  0  0
  2  3  4  0  0  0  0
  2  7  4  0  0  0  0
  3  4  4  0  0  0  0
  4  5  4  0  0  0  0
  4  9  1  0  0  0  0
  5  6  4  0  0  0  0
  6  7  4  0  0  0  0
  7  8  1  0  0  0  0
  9 10  1  0  0  0  0
  9 13  1  0  0  0  0
  9 15  1  0  0  0  0
 10 11  1  0  0  0  0
 10 15  1  0  0  0  0
 11 12  1  0  0  0  0
 12 13  1  0  0  0  0
 12 14  1  0  0  0  0
 15 16  1  0  0  0  0
 16 17  1  0  0  0  0
 17 18  1  0  0  0  0
 18 19  1  0  0  0  0
M  END
>  <Name_Molregno>
596602

>  <Dopamine transporter>
7.4

>  <Norepinephrine transporter>
7.8

>  <Serotonin transporter>
8.9

$$$$
596603
  Marvin  02231216192D 0   1.00000     0.00000     0

 21 23  0  0  1  0  0  0  0  0999 V2000
    2.7821    1.9201    0.0000 Cl  0  0  0  0  0  0  0  0  0
    2.8683    1.0996    0.0000 C   0  0  0  0  0  0  0  0  0
    2.2009    0.6147    0.0000 C   0  0  0  0  0  0  0  0  0
    2.2871   -0.2058    0.0000 C   0  0  0  0  0  0  0  0  0
    3.0408   -0.5413    0.0000 C   0  0  0  0  0  0  0  0  0
    3.7083   -0.0564    0.0000 C   0  0  0  0  0  0  0  0  0
    3.6220    0.7641    0.0000 C   0  0  0  0  0  0  0  0  0
    4.2895    1.2490    0.0000 Cl  0  0  0  0  0  0  0  0  0
    1.6197   -0.6907    0.0000 C   0  0  0  0  0  0  0  0  0
    1.2072   -1.4052    0.0000 C   0  0  0  0  0  0  0  0  0
    0.4002   -1.2336    0.0000 C   0  0  0  0  0  0  0  0  0
    0.3140   -0.4132    0.0000 N   0  0  0  0  0  0  0  0  0
    1.0677   -0.0776    0.0000 C   0  0  0  0  0  0  0  0  0
    2.0322   -1.4052    0.0000 C   0  0  0  0  0  0  0  0  0
    2.7467   -1.8177    0.0000 C   0  0  0  0  0  0  0  0  0
    3.4611   -1.4052    0.0000 O   0  0  0  0  0  0  0  0  0
    4.1756   -1.8177    0.0000 C   0  0  0  0  0  0  0  0  0
    4.8901   -1.4052    0.0000 C   0  0  0  0  0  0  0  0  0
    5.6046   -0.9927    0.0000 F   0  0  0  0  0  0  0  0  0
    5.3026   -2.1196    0.0000 F   0  0  0  0  0  0  0  0  0
    4.4776   -0.6907    0.0000 F   0  0  0  0  0  0  0  0  0
  1  2  1  0  0  0  0
  2  3  4  0  0  0  0
  2  7  4  0  0  0  0
  3  4  4  0  0  0  0
  4  5  4  0  0  0  0
  4  9  1  0  0  0  0
  5  6  4  0  0  0  0
  6  7  4  0  0  0  0
  7  8  1  0  0  0  0
  9 10  1  0  0  0  0
  9 13  1  0  0  0  0
  9 14  1  0  0  0  0
 10 11  1  0  0  0  0
 10 14  1  0  0  0  0
 11 12  1  0  0  0  0
 12 13  1  0  0  0  0
 14 15  1  0  0  0  0
 15 16  1  0  0  0  0
 16 17  1  0  0  0  0
 17 18  1  0  0  0  0
 18 19  1  0  0  0  0
 18 20  1  0  0  0  0
 18 21  1  0  0  0  0
M  END
>  <Name_Molregno>
596603

>  <Dopamine transporter>
7.03

>  <Norepinephrine transporter>
7.89

>  <Serotonin transporter>
8.45

$$$$
596605
  Marvin  02231216192D 0   1.00000     0.00000     0

 19 21  0  0  1  0  0  0  0  0999 V2000
    1.2181   -0.5436    0.0000 Cl  0  0  0  0  0  0  0  0  0
    2.0386   -0.4574    0.0000 C   0  0  0  0  0  0  0  0  0
    2.3741    0.2963    0.0000 C   0  0  0  0  0  0  0  0  0
    3.1946    0.3826    0.0000 C   0  0  0  0  0  0  0  0  0
    3.6795   -0.2849    0.0000 C   0  0  0  0  0  0  0  0  0
    3.3440   -1.0386    0.0000 C   0  0  0  0  0  0  0  0  0
    2.5235   -1.1248    0.0000 C   0  0  0  0  0  0  0  0  0
    2.1880   -1.8785    0.0000 Cl  0  0  0  0  0  0  0  0  0
    3.5302    1.1362    0.0000 C   0  0  0  0  0  0  0  0  0
    3.5302    1.9612    0.0000 C   0  0  0  0  0  0  0  0  0
    4.3148    2.2162    0.0000 C   0  0  0  0  0  0  0  0  0
    4.7997    1.5487    0.0000 N   0  0  0  0  0  0  0  0  0
    4.3148    0.8813    0.0000 C   0  0  0  0  0  0  0  0  0
    2.8157    1.5487    0.0000 C   0  0  0  0  0  0  0  0  0
    1.9907    1.5487    0.0000 C   0  0  0  0  0  0  0  0  0
    1.5782    0.8343    0.0000 O   0  0  0  0  0  0  0  0  0
    0.7532    0.8343    0.0000 C   0  0  0  0  0  0  0  0  0
    0.3407    0.1198    0.0000 C   0  0  0  0  0  0  0  0  0
    0.3407    1.5487    0.0000 C   0  0  0  0  0  0  0  0  0
  1  2  1  0  0  0  0
  2  3  4  0  0  0  0
  2  7  4  0  0  0  0
  3  4  4  0  0  0  0
  4  5  4  0  0  0  0
  4  9  1  0  0  0  0
  5  6  4  0  0  0  0
  6  7  4  0  0  0  0
  7  8  1  0  0  0  0
  9 10  1  0  0  0  0
  9 13  1  0  0  0  0
  9 14  1  0  0  0  0
 10 11  1  0  0  0  0
 10 14  1  0  0  0  0
 11 12  1  0  0  0  0
 12 13  1  0  0  0  0
 14 15  1  0  0  0  0
 15 16  1  0  0  0  0
 16 17  1  0  0  0  0
 17 18  1  0  0  0  0
 17 19  1  0  0  0  0
M  END
>  <Name_Molregno>
596605

>  <Dopamine transporter>
7.67

>  <Norepinephrine transporter>
8.57

>  <Serotonin transporter>
9

$$$$
596665
  Marvin  02231216192D 0   1.00000     0.00000     0

 20 23  0  0  1  0  0  0  0  0999 V2000
    1.4076   -0.1204    0.0000 Cl  0  0  0  0  0  0  0  0  0
    2.2281   -0.0342    0.0000 C   0  0  0  0  0  0  0  0  0
    2.5636    0.7195    0.0000 C   0  0  0  0  0  0  0  0  0
    3.3841    0.8058    0.0000 C   0  0  0  0  0  0  0  0  0
    3.8690    0.1383    0.0000 C   0  0  0  0  0  0  0  0  0
    3.5335   -0.6154    0.0000 C   0  0  0  0  0  0  0  0  0
    2.7130   -0.7016    0.0000 C   0  0  0  0  0  0  0  0  0
    2.3774   -1.4553    0.0000 Cl  0  0  0  0  0  0  0  0  0
    3.7197    1.5594    0.0000 C   0  0  0  0  0  0  0  0  0
    3.7197    2.3844    0.0000 C   0  0  0  0  0  0  0  0  0
    4.5043    2.6394    0.0000 C   0  0  0  0  0  0  0  0  0
    4.9892    1.9719    0.0000 N   0  0  0  0  0  0  0  0  0
    4.5043    1.3045    0.0000 C   0  0  0  0  0  0  0  0  0
    3.0052    1.9719    0.0000 C   0  0  0  0  0  0  0  0  0
    2.1802    1.9719    0.0000 C   0  0  0  0  0  0  0  0  0
    1.7677    1.2575    0.0000 O   0  0  0  0  0  0  0  0  0
    0.9427    1.2575    0.0000 C   0  0  0  0  0  0  0  0  0
    0.3593    0.6741    0.0000 C   0  0  0  0  0  0  0  0  0
   -0.2240    1.2575    0.0000 C   0  0  0  0  0  0  0  0  0
    0.3593    1.8408    0.0000 C   0  0  0  0  0  0  0  0  0
  1  2  1  0  0  0  0
  2  3  4  0  0  0  0
  2  7  4  0  0  0  0
  3  4  4  0  0  0  0
  4  5  4  0  0  0  0
  4  9  1  0  0  0  0
  5  6  4  0  0  0  0
  6  7  4  0  0  0  0
  7  8  1  0  0  0  0
  9 10  1  0  0  0  0
  9 13  1  0  0  0  0
  9 14  1  0  0  0  0
 10 11  1  0  0  0  0
 10 14  1  0  0  0  0
 11 12  1  0  0  0  0
 12 13  1  0  0  0  0
 14 15  1  0  0  0  0
 15 16  1  0  0  0  0
 16 17  1  0  0  0  0
 17 18  1  0  0  0  0
 17 20  1  0  0  0  0
 18 19  1  0  0  0  0
 19 20  1  0  0  0  0
M  END
>  <Name_Molregno>
596665

>  <Dopamine transporter>
7.63

>  <Norepinephrine transporter>
8.33

>  <Serotonin transporter>
8.77

$$$$
596668
  Marvin  02231216192D 0   1.00000     0.00000     0

 21 24  0  0  1  0  0  0  0  0999 V2000
    1.8078   -1.4449    0.0000 Cl  0  0  0  0  0  0  0  0  0
    2.6283   -1.3587    0.0000 C   0  0  0  0  0  0  0  0  0
    2.9638   -0.6050    0.0000 C   0  0  0  0  0  0  0  0  0
    3.7843   -0.5188    0.0000 C   0  0  0  0  0  0  0  0  0
    4.2692   -1.1862    0.0000 C   0  0  0  0  0  0  0  0  0
    3.9337   -1.9399    0.0000 C   0  0  0  0  0  0  0  0  0
    3.1132   -2.0261    0.0000 C   0  0  0  0  0  0  0  0  0
    2.7776   -2.7798    0.0000 Cl  0  0  0  0  0  0  0  0  0
    4.1199    0.2349    0.0000 C   0  0  0  0  0  0  0  0  0
    4.1199    1.0599    0.0000 C   0  0  0  0  0  0  0  0  0
    4.9045    1.3148    0.0000 C   0  0  0  0  0  0  0  0  0
    5.3894    0.6474    0.0000 N   0  0  0  0  0  0  0  0  0
    4.9045   -0.0201    0.0000 C   0  0  0  0  0  0  0  0  0
    3.4054    0.6474    0.0000 C   0  0  0  0  0  0  0  0  0
    2.5804    0.6474    0.0000 C   0  0  0  0  0  0  0  0  0
    2.1679   -0.0671    0.0000 O   0  0  0  0  0  0  0  0  0
    1.3429   -0.0671    0.0000 C   0  0  0  0  0  0  0  0  0
    0.8580   -0.7345    0.0000 C   0  0  0  0  0  0  0  0  0
    0.0733   -0.4796    0.0000 C   0  0  0  0  0  0  0  0  0
    0.0733    0.3454    0.0000 C   0  0  0  0  0  0  0  0  0
    0.8580    0.6004    0.0000 C   0  0  0  0  0  0  0  0  0
  1  2  1  0  0  0  0
  2  3  4  0  0  0  0
  2  7  4  0  0  0  0
  3  4  4  0  0  0  0
  4  5  4  0  0  0  0
  4  9  1  0  0  0  0
  5  6  4  0  0  0  0
  6  7  4  0  0  0  0
  7  8  1  0  0  0  0
  9 10  1  0  0  0  0
  9 13  1  0  0  0  0
  9 14  1  0  0  0  0
 10 11  1  0  0  0  0
 10 14  1  0  0  0  0
 11 12  1  0  0  0  0
 12 13  1  0  0  0  0
 14 15  1  0  0  0  0
 15 16  1  0  0  0  0
 16 17  1  0  0  0  0
 17 18  1  0  0  0  0
 17 21  1  0  0  0  0
 18 19  1  0  0  0  0
 19 20  1  0  0  0  0
 20 21  1  0  0  0  0
M  END
>  <Name_Molregno>
596668

>  <Dopamine transporter>
7.93

>  <Norepinephrine transporter>
8.93

>  <Serotonin transporter>
9

$$$$
596732
  Marvin  02231216192D 0   1.00000     0.00000     0

 22 25  0  0  1  0  0  0  0  0999 V2000
    2.0721   -1.3842    0.0000 Cl  0  0  0  0  0  0  0  0  0
    2.8925   -1.2979    0.0000 C   0  0  0  0  0  0  0  0  0
    3.2281   -0.5442    0.0000 C   0  0  0  0  0  0  0  0  0
    4.0486   -0.4580    0.0000 C   0  0  0  0  0  0  0  0  0
    4.5335   -1.1254    0.0000 C   0  0  0  0  0  0  0  0  0
    4.1979   -1.8791    0.0000 C   0  0  0  0  0  0  0  0  0
    3.3775   -1.9654    0.0000 C   0  0  0  0  0  0  0  0  0
    3.0419   -2.7190    0.0000 Cl  0  0  0  0  0  0  0  0  0
    4.3841    0.2957    0.0000 C   0  0  0  0  0  0  0  0  0
    4.3841    1.1207    0.0000 C   0  0  0  0  0  0  0  0  0
    5.1688    1.3756    0.0000 C   0  0  0  0  0  0  0  0  0
    5.6537    0.7082    0.0000 N   0  0  0  0  0  0  0  0  0
    5.1688    0.0407    0.0000 C   0  0  0  0  0  0  0  0  0
    3.6697    0.7082    0.0000 C   0  0  0  0  0  0  0  0  0
    2.8447    0.7082    0.0000 C   0  0  0  0  0  0  0  0  0
    2.4322   -0.0063    0.0000 O   0  0  0  0  0  0  0  0  0
    1.6072   -0.0063    0.0000 C   0  0  0  0  0  0  0  0  0
    1.1947   -0.7208    0.0000 C   0  0  0  0  0  0  0  0  0
    0.3697   -0.7208    0.0000 C   0  0  0  0  0  0  0  0  0
   -0.0428   -0.0063    0.0000 C   0  0  0  0  0  0  0  0  0
    0.3697    0.7082    0.0000 C   0  0  0  0  0  0  0  0  0
    1.1947    0.7082    0.0000 C   0  0  0  0  0  0  0  0  0
  1  2  1  0  0  0  0
  2  3  4  0  0  0  0
  2  7  4  0  0  0  0
  3  4  4  0  0  0  0
  4  5  4  0  0  0  0
  4  9  1  0  0  0  0
  5  6  4  0  0  0  0
  6  7  4  0  0  0  0
  7  8  1  0  0  0  0
  9 10  1  0  0  0  0
  9 13  1  0  0  0  0
  9 14  1  0  0  0  0
 10 11  1  0  0  0  0
 10 14  1  0  0  0  0
 11 12  1  0  0  0  0
 12 13  1  0  0  0  0
 14 15  1  0  0  0  0
 15 16  1  0  0  0  0
 16 17  1  0  0  0  0
 17 18  1  0  0  0  0
 17 22  1  0  0  0  0
 18 19  1  0  0  0  0
 19 20  1  0  0  0  0
 20 21  1  0  0  0  0
 21 22  1  0  0  0  0
M  END
>  <Name_Molregno>
596732

>  <Dopamine transporter>
7.7

>  <Norepinephrine transporter>
8.7

>  <Serotonin transporter>
9

$$$$
596733
  Marvin  02231216192D 0   1.00000     0.00000     0

 23 26  0  0  1  0  0  0  0  0999 V2000
    1.8839    0.6067    0.0000 Cl  0  0  0  0  0  0  0  0  0
    2.7044    0.6930    0.0000 C   0  0  0  0  0  0  0  0  0
    3.0399    1.4466    0.0000 C   0  0  0  0  0  0  0  0  0
    3.8604    1.5329    0.0000 C   0  0  0  0  0  0  0  0  0
    4.3453    0.8654    0.0000 C   0  0  0  0  0  0  0  0  0
    4.0098    0.1118    0.0000 C   0  0  0  0  0  0  0  0  0
    3.1893    0.0255    0.0000 C   0  0  0  0  0  0  0  0  0
    2.8538   -0.7282    0.0000 Cl  0  0  0  0  0  0  0  0  0
    4.1960    2.2865    0.0000 C   0  0  0  0  0  0  0  0  0
    4.1960    3.1115    0.0000 C   0  0  0  0  0  0  0  0  0
    4.9806    3.3665    0.0000 C   0  0  0  0  0  0  0  0  0
    5.4655    2.6990    0.0000 N   0  0  0  0  0  0  0  0  0
    4.9806    2.0316    0.0000 C   0  0  0  0  0  0  0  0  0
    3.4815    2.6990    0.0000 C   0  0  0  0  0  0  0  0  0
    2.6565    2.6990    0.0000 C   0  0  0  0  0  0  0  0  0
    2.2440    1.9846    0.0000 O   0  0  0  0  0  0  0  0  0
    1.4190    1.9846    0.0000 C   0  0  0  0  0  0  0  0  0
    1.0065    1.2701    0.0000 C   0  0  0  0  0  0  0  0  0
    0.1815    1.2701    0.0000 C   0  0  0  0  0  0  0  0  0
   -0.2310    1.9846    0.0000 C   0  0  0  0  0  0  0  0  0
   -1.0560    1.9846    0.0000 F   0  0  0  0  0  0  0  0  0
    0.1815    2.6990    0.0000 C   0  0  0  0  0  0  0  0  0
    1.0065    2.6990    0.0000 C   0  0  0  0  0  0  0  0  0
  1  2  1  0  0  0  0
  2  3  4  0  0  0  0
  2  7  4  0  0  0  0
  3  4  4  0  0  0  0
  4  5  4  0  0  0  0
  4  9  1  0  0  0  0
  5  6  4  0  0  0  0
  6  7  4  0  0  0  0
  7  8  1  0  0  0  0
  9 10  1  0  0  0  0
  9 13  1  0  0  0  0
  9 14  1  0  0  0  0
 10 11  1  0  0  0  0
 10 14  1  0  0  0  0
 11 12  1  0  0  0  0
 12 13  1  0  0  0  0
 14 15  1  0  0  0  0
 15 16  1  0  0  0  0
 16 17  1  0  0  0  0
 17 18  4  0  0  0  0
 17 23  4  0  0  0  0
 18 19  4  0  0  0  0
 19 20  4  0  0  0  0
 20 21  1  0  0  0  0
 20 22  4  0  0  0  0
 22 23  4  0  0  0  0
M  END
>  <Name_Molregno>
596733

>  <Dopamine transporter>
7.1

>  <Norepinephrine transporter>
7.4

>  <Serotonin transporter>
8.9

$$$$
596734
  Marvin  02231216192D 0   1.00000     0.00000     0

 18 20  0  0  1  0  0  0  0  0999 V2000
    0.8520   -1.9134    0.0000 Cl  0  0  0  0  0  0  0  0  0
    1.6725   -1.8271    0.0000 C   0  0  0  0  0  0  0  0  0
    2.0080   -1.0735    0.0000 C   0  0  0  0  0  0  0  0  0
    2.8285   -0.9872    0.0000 C   0  0  0  0  0  0  0  0  0
    3.3134   -1.6547    0.0000 C   0  0  0  0  0  0  0  0  0
    2.9779   -2.4083    0.0000 C   0  0  0  0  0  0  0  0  0
    2.1574   -2.4946    0.0000 C   0  0  0  0  0  0  0  0  0
    1.8219   -3.2483    0.0000 Cl  0  0  0  0  0  0  0  0  0
    3.1641   -0.2336    0.0000 C   0  0  0  0  0  0  0  0  0
    3.1641    0.5914    0.0000 C   0  0  0  0  0  0  0  0  0
    3.9487    0.8464    0.0000 C   0  0  0  0  0  0  0  0  0
    4.4336    0.1789    0.0000 N   0  0  0  0  0  0  0  0  0
    3.9487   -0.4885    0.0000 C   0  0  0  0  0  0  0  0  0
    2.4496    0.1789    0.0000 C   0  0  0  0  0  0  0  0  0
    1.6246    0.1789    0.0000 C   0  0  0  0  0  0  0  0  0
    1.2121    0.8934    0.0000 N   0  0  0  0  0  0  0  0  0
    0.3871    0.8934    0.0000 C   0  0  0  0  0  0  0  0  0
    1.6246    1.6079    0.0000 C   0  0  0  0  0  0  0  0  0
  1  2  1  0  0  0  0
  2  3  4  0  0  0  0
  2  7  4  0  0  0  0
  3  4  4  0  0  0  0
  4  5  4  0  0  0  0
  4  9  1  0  0  0  0
  5  6  4  0  0  0  0
  6  7  4  0  0  0  0
  7  8  1  0  0  0  0
  9 10  1  0  0  0  0
  9 13  1  0  0  0  0
  9 14  1  0  0  0  0
 10 11  1  0  0  0  0
 10 14  1  0  0  0  0
 11 12  1  0  0  0  0
 12 13  1  0  0  0  0
 14 15  1  0  0  0  0
 15 16  1  0  0  0  0
 16 17  1  0  0  0  0
 16 18  1  0  0  0  0
M  END
>  <Name_Molregno>
596734

>  <Dopamine transporter>
6.2

>  <Norepinephrine transporter>
7.5

>  <Serotonin transporter>
8.4

$$$$
596735
  Marvin  02231216192D 0   1.00000     0.00000     0

 17 19  0  0  1  0  0  0  0  0999 V2000
    0.6625   -1.7701    0.0000 Cl  0  0  0  0  0  0  0  0  0
    1.4830   -1.6839    0.0000 C   0  0  0  0  0  0  0  0  0
    1.8186   -0.9302    0.0000 C   0  0  0  0  0  0  0  0  0
    2.6391   -0.8440    0.0000 C   0  0  0  0  0  0  0  0  0
    3.1240   -1.5114    0.0000 C   0  0  0  0  0  0  0  0  0
    2.7884   -2.2651    0.0000 C   0  0  0  0  0  0  0  0  0
    1.9679   -2.3513    0.0000 C   0  0  0  0  0  0  0  0  0
    1.6324   -3.1050    0.0000 Cl  0  0  0  0  0  0  0  0  0
    2.9746   -0.0903    0.0000 C   0  0  0  0  0  0  0  0  0
    2.9746    0.7347    0.0000 C   0  0  0  0  0  0  0  0  0
    3.7592    0.9897    0.0000 C   0  0  0  0  0  0  0  0  0
    4.2442    0.3222    0.0000 N   0  0  0  0  0  0  0  0  0
    3.7592   -0.3452    0.0000 C   0  0  0  0  0  0  0  0  0
    2.2601    0.3222    0.0000 C   0  0  0  0  0  0  0  0  0
    1.4351    0.3222    0.0000 C   0  0  0  0  0  0  0  0  0
    1.0226    1.0367    0.0000 S   0  0  0  0  0  0  0  0  0
    0.1976    1.0367    0.0000 C   0  0  0  0  0  0  0  0  0
  1  2  1  0  0  0  0
  2  3  4  0  0  0  0
  2  7  4  0  0  0  0
  3  4  4  0  0  0  0
  4  5  4  0  0  0  0
  4  9  1  0  0  0  0
  5  6  4  0  0  0  0
  6  7  4  0  0  0  0
  7  8  1  0  0  0  0
  9 10  1  0  0  0  0
  9 13  1  0  0  0  0
  9 14  1  0  0  0  0
 10 11  1  0  0  0  0
 10 14  1  0  0  0  0
 11 12  1  0  0  0  0
 12 13  1  0  0  0  0
 14 15  1  0  0  0  0
 15 16  1  0  0  0  0
 16 17  1  0  0  0  0
M  END
>  <Name_Molregno>
596735

>  <Dopamine transporter>
7.23

>  <Norepinephrine transporter>
7.87

>  <Serotonin transporter>
8.7

$$$$
596816
  Marvin  02231216192D 0   1.00000     0.00000     0

 17 19  0  0  1  0  0  0  0  0999 V2000
    0.6625   -1.7701    0.0000 Cl  0  0  0  0  0  0  0  0  0
    1.4830   -1.6839    0.0000 C   0  0  0  0  0  0  0  0  0
    1.8186   -0.9302    0.0000 C   0  0  0  0  0  0  0  0  0
    2.6391   -0.8440    0.0000 C   0  0  0  0  0  0  0  0  0
    3.1240   -1.5114    0.0000 C   0  0  0  0  0  0  0  0  0
    2.7884   -2.2651    0.0000 C   0  0  0  0  0  0  0  0  0
    1.9679   -2.3513    0.0000 C   0  0  0  0  0  0  0  0  0
    1.6324   -3.1050    0.0000 Cl  0  0  0  0  0  0  0  0  0
    2.9746   -0.0903    0.0000 C   0  0  0  0  0  0  0  0  0
    2.9746    0.7347    0.0000 C   0  0  0  0  0  0  0  0  0
    3.7592    0.9897    0.0000 C   0  0  0  0  0  0  0  0  0
    4.2442    0.3222    0.0000 N   0  0  0  0  0  0  0  0  0
    3.7592   -0.3452    0.0000 C   0  0  0  0  0  0  0  0  0
    2.2601    0.3222    0.0000 C   0  0  0  0  0  0  0  0  0
    1.4351    0.3222    0.0000 C   0  0  0  0  0  0  0  0  0
    1.0226    1.0367    0.0000 C   0  0  0  0  0  0  0  0  0
    0.1976    1.0367    0.0000 C   0  0  0  0  0  0  0  0  0
  1  2  1  0  0  0  0
  2  3  4  0  0  0  0
  2  7  4  0  0  0  0
  3  4  4  0  0  0  0
  4  5  4  0  0  0  0
  4  9  1  0  0  0  0
  5  6  4  0  0  0  0
  6  7  4  0  0  0  0
  7  8  1  0  0  0  0
  9 10  1  0  0  0  0
  9 13  1  0  0  0  0
  9 14  1  0  0  0  0
 10 11  1  0  0  0  0
 10 14  1  0  0  0  0
 11 12  1  0  0  0  0
 12 13  1  0  0  0  0
 14 15  1  0  0  0  0
 15 16  1  0  0  0  0
 16 17  1  0  0  0  0
M  END
>  <Name_Molregno>
596816

>  <Dopamine transporter>
7.6

>  <Norepinephrine transporter>
8.7

>  <Serotonin transporter>
9

$$$$
596817
  Marvin  02231216192D 0   1.00000     0.00000     0

 19 22  0  0  1  0  0  0  0  0999 V2000
    1.7350   -0.8198    0.0000 O   0  0  0  0  0  0  0  0  0
    1.8212    0.0007    0.0000 C   0  0  0  0  0  0  0  0  0
    1.1537    0.4856    0.0000 C   0  0  0  0  0  0  0  0  0
    0.3333    0.5718    0.0000 C   0  0  0  0  0  0  0  0  0
   -0.4514    0.8268    0.0000 C   0  0  0  0  0  0  0  0  0
   -0.4514    1.6518    0.0000 N   0  0  0  0  0  0  0  0  0
    0.3333    1.9067    0.0000 C   0  0  0  0  0  0  0  0  0
    0.8182    1.2393    0.0000 C   0  0  0  0  0  0  0  0  0
    1.5327    1.6518    0.0000 C   0  0  0  0  0  0  0  0  0
    2.2471    1.2393    0.0000 C   0  0  0  0  0  0  0  0  0
    2.9616    1.6518    0.0000 C   0  0  0  0  0  0  0  0  0
    2.9616    2.4768    0.0000 C   0  0  0  0  0  0  0  0  0
    2.2471    2.8893    0.0000 C   0  0  0  0  0  0  0  0  0
    1.5327    2.4768    0.0000 C   0  0  0  0  0  0  0  0  0
    3.6761    2.8893    0.0000 C   0  0  0  0  0  0  0  0  0
    4.3905    2.4768    0.0000 C   0  0  0  0  0  0  0  0  0
    4.3905    1.6518    0.0000 C   0  0  0  0  0  0  0  0  0
    3.6761    1.2393    0.0000 C   0  0  0  0  0  0  0  0  0
    2.4024   -1.3047    0.0000 C   0  0  0  0  0  0  0  0  0
  1  2  1  0  0  0  0
  1 19  1  0  0  0  0
  2  3  1  0  0  0  0
  3  4  1  0  0  0  0
  3  8  1  0  0  0  0
  4  5  1  0  0  0  0
  4  8  1  0  0  0  0
  5  6  1  0  0  0  0
  6  7  1  0  0  0  0
  7  8  1  0  0  0  0
  8  9  1  0  0  0  0
  9 10  4  0  0  0  0
  9 14  4  0  0  0  0
 10 11  4  0  0  0  0
 11 12  4  0  0  0  0
 11 18  4  0  0  0  0
 12 13  4  0  0  0  0
 12 15  4  0  0  0  0
 13 14  4  0  0  0  0
 15 16  4  0  0  0  0
 16 17  4  0  0  0  0
 17 18  4  0  0  0  0
M  END
>  <Name_Molregno>
596817

>  <Dopamine transporter>
7.1

>  <Norepinephrine transporter>
8.23

>  <Serotonin transporter>
9.27

$$$$
596819
  Marvin  02231216192D 0   1.00000     0.00000     0

 17 19  0  0  1  0  0  0  0  0999 V2000
    0.6625   -0.5781    0.0000 Cl  0  0  0  0  0  0  0  0  0
    1.4830   -0.4919    0.0000 C   0  0  0  0  0  0  0  0  0
    1.8186    0.2618    0.0000 C   0  0  0  0  0  0  0  0  0
    2.6391    0.3480    0.0000 C   0  0  0  0  0  0  0  0  0
    3.1240   -0.3194    0.0000 C   0  0  0  0  0  0  0  0  0
    2.7884   -1.0731    0.0000 C   0  0  0  0  0  0  0  0  0
    1.9679   -1.1593    0.0000 C   0  0  0  0  0  0  0  0  0
    1.6324   -1.9130    0.0000 Cl  0  0  0  0  0  0  0  0  0
    2.9746    1.1017    0.0000 C   0  0  0  0  0  0  0  0  0
    2.9746    1.9267    0.0000 C   0  0  0  0  0  0  0  0  0
    3.7592    2.1817    0.0000 C   0  0  0  0  0  0  0  0  0
    4.2442    1.5142    0.0000 N   0  0  0  0  0  0  0  0  0
    3.7592    0.8468    0.0000 C   0  0  0  0  0  0  0  0  0
    2.2601    1.5142    0.0000 C   0  0  0  0  0  0  0  0  0
    1.4351    1.5142    0.0000 C   0  0  0  0  0  0  0  0  0
    1.0226    2.2287    0.0000 C   0  0  0  0  0  0  0  0  0
    0.1976    2.2287    0.0000 O   0  0  0  0  0  0  0  0  0
  1  2  1  0  0  0  0
  2  3  4  0  0  0  0
  2  7  4  0  0  0  0
  3  4  4  0  0  0  0
  4  5  4  0  0  0  0
  4  9  1  0  0  0  0
  5  6  4  0  0  0  0
  6  7  4  0  0  0  0
  7  8  1  0  0  0  0
  9 10  1  0  0  0  0
  9 13  1  0  0  0  0
  9 14  1  0  0  0  0
 10 11  1  0  0  0  0
 10 14  1  0  0  0  0
 11 12  1  0  0  0  0
 12 13  1  0  0  0  0
 14 15  1  0  0  0  0
 15 16  1  0  0  0  0
 16 17  1  0  0  0  0
M  END
>  <Name_Molregno>
596819

>  <Dopamine transporter>
7.1

>  <Norepinephrine transporter>
8.1

>  <Serotonin transporter>
8.6

$$$$
596820
  Marvin  02231216192D 0   1.00000     0.00000     0

 18 20  0  0  1  0  0  0  0  0999 V2000
    0.9825   -1.5735    0.0000 Cl  0  0  0  0  0  0  0  0  0
    1.8030   -1.4872    0.0000 C   0  0  0  0  0  0  0  0  0
    2.1386   -0.7336    0.0000 C   0  0  0  0  0  0  0  0  0
    2.9591   -0.6473    0.0000 C   0  0  0  0  0  0  0  0  0
    3.4440   -1.3148    0.0000 C   0  0  0  0  0  0  0  0  0
    3.1084   -2.0684    0.0000 C   0  0  0  0  0  0  0  0  0
    2.2879   -2.1547    0.0000 C   0  0  0  0  0  0  0  0  0
    1.9524   -2.9084    0.0000 Cl  0  0  0  0  0  0  0  0  0
    3.2946    0.1063    0.0000 C   0  0  0  0  0  0  0  0  0
    3.2946    0.9313    0.0000 C   0  0  0  0  0  0  0  0  0
    4.0792    1.1863    0.0000 C   0  0  0  0  0  0  0  0  0
    4.5642    0.5188    0.0000 N   0  0  0  0  0  0  0  0  0
    4.0792   -0.1486    0.0000 C   0  0  0  0  0  0  0  0  0
    2.5801    0.5188    0.0000 C   0  0  0  0  0  0  0  0  0
    1.7551    0.5188    0.0000 C   0  0  0  0  0  0  0  0  0
    1.3426   -0.1956    0.0000 C   0  0  0  0  0  0  0  0  0
    0.5176   -0.1956    0.0000 O   0  0  0  0  0  0  0  0  0
    0.1051   -0.9101    0.0000 C   0  0  0  0  0  0  0  0  0
  1  2  1  0  0  0  0
  2  3  4  0  0  0  0
  2  7  4  0  0  0  0
  3  4  4  0  0  0  0
  4  5  4  0  0  0  0
  4  9  1  0  0  0  0
  5  6  4  0  0  0  0
  6  7  4  0  0  0  0
  7  8  1  0  0  0  0
  9 10  1  0  0  0  0
  9 13  1  0  0  0  0
  9 14  1  0  0  0  0
 10 11  1  0  0  0  0
 10 14  1  0  0  0  0
 11 12  1  0  0  0  0
 12 13  1  0  0  0  0
 14 15  1  0  0  0  0
 15 16  1  0  0  0  0
 16 17  1  0  0  0  0
 17 18  1  0  0  0  0
M  END
>  <Name_Molregno>
596820

>  <Dopamine transporter>
7.13

>  <Norepinephrine transporter>
7.83

>  <Serotonin transporter>
8.73

$$$$
596885
  Marvin  02231216192D 0   1.00000     0.00000     0

 19 21  0  0  1  0  0  0  0  0999 V2000
    3.0816    2.3903    0.0000 Cl  0  0  0  0  0  0  0  0  0
    2.4142    1.9054    0.0000 C   0  0  0  0  0  0  0  0  0
    2.5004    1.0849    0.0000 C   0  0  0  0  0  0  0  0  0
    1.8330    0.6000    0.0000 C   0  0  0  0  0  0  0  0  0
    1.0793    0.9355    0.0000 C   0  0  0  0  0  0  0  0  0
    0.9931    1.7560    0.0000 C   0  0  0  0  0  0  0  0  0
    1.6605    2.2409    0.0000 C   0  0  0  0  0  0  0  0  0
    1.5743    3.0614    0.0000 Cl  0  0  0  0  0  0  0  0  0
    1.9192   -0.2205    0.0000 C   0  0  0  0  0  0  0  0  0
    2.3317   -0.9350    0.0000 C   0  0  0  0  0  0  0  0  0
    1.7797   -1.5481    0.0000 C   0  0  0  0  0  0  0  0  0
    1.0260   -1.2125    0.0000 N   0  0  0  0  0  0  0  0  0
    1.1123   -0.3920    0.0000 C   0  0  0  0  0  0  0  0  0
    2.7442   -0.2205    0.0000 C   0  0  0  0  0  0  0  0  0
    3.4587    0.1920    0.0000 C   0  0  0  0  0  0  0  0  0
    4.1732   -0.2205    0.0000 C   0  0  0  0  0  0  0  0  0
    4.8876    0.1920    0.0000 O   0  0  0  0  0  0  0  0  0
    5.6021   -0.2205    0.0000 C   0  0  0  0  0  0  0  0  0
    6.3166    0.1920    0.0000 C   0  0  0  0  0  0  0  0  0
  1  2  1  0  0  0  0
  2  3  4  0  0  0  0
  2  7  4  0  0  0  0
  3  4  4  0  0  0  0
  4  5  4  0  0  0  0
  4  9  1  0  0  0  0
  5  6  4  0  0  0  0
  6  7  4  0  0  0  0
  7  8  1  0  0  0  0
  9 10  1  0  0  0  0
  9 13  1  0  0  0  0
  9 14  1  0  0  0  0
 10 11  1  0  0  0  0
 10 14  1  0  0  0  0
 11 12  1  0  0  0  0
 12 13  1  0  0  0  0
 14 15  1  0  0  0  0
 15 16  1  0  0  0  0
 16 17  1  0  0  0  0
 17 18  1  0  0  0  0
 18 19  1  0  0  0  0
M  END
>  <Name_Molregno>
596885

>  <Dopamine transporter>
7.1

>  <Norepinephrine transporter>
8.4

>  <Serotonin transporter>
9.1

$$$$
596886
  Marvin  02231216192D 0   1.00000     0.00000     0

 20 23  0  0  1  0  0  0  0  0999 V2000
    1.2565   -1.6405    0.0000 Cl  0  0  0  0  0  0  0  0  0
    2.0770   -1.5543    0.0000 C   0  0  0  0  0  0  0  0  0
    2.4125   -0.8006    0.0000 C   0  0  0  0  0  0  0  0  0
    3.2330   -0.7144    0.0000 C   0  0  0  0  0  0  0  0  0
    3.7179   -1.3818    0.0000 C   0  0  0  0  0  0  0  0  0
    3.3824   -2.1355    0.0000 C   0  0  0  0  0  0  0  0  0
    2.5619   -2.2217    0.0000 C   0  0  0  0  0  0  0  0  0
    2.2263   -2.9754    0.0000 Cl  0  0  0  0  0  0  0  0  0
    3.5686    0.0393    0.0000 C   0  0  0  0  0  0  0  0  0
    3.5686    0.8643    0.0000 C   0  0  0  0  0  0  0  0  0
    4.3532    1.1192    0.0000 C   0  0  0  0  0  0  0  0  0
    4.8381    0.4518    0.0000 N   0  0  0  0  0  0  0  0  0
    4.3532   -0.2157    0.0000 C   0  0  0  0  0  0  0  0  0
    2.8541    0.4518    0.0000 C   0  0  0  0  0  0  0  0  0
    2.0291    0.4518    0.0000 C   0  0  0  0  0  0  0  0  0
    1.5442   -0.2157    0.0000 O   0  0  0  0  0  0  0  0  0
    0.7595    0.0393    0.0000 C   0  0  0  0  0  0  0  0  0
    0.7595    0.8643    0.0000 C   0  0  0  0  0  0  0  0  0
    1.5442    1.1192    0.0000 N   0  0  0  0  0  0  0  0  0
    0.0921   -0.4456    0.0000 C   0  0  0  0  0  0  0  0  0
  1  2  1  0  0  0  0
  2  3  4  0  0  0  0
  2  7  4  0  0  0  0
  3  4  4  0  0  0  0
  4  5  4  0  0  0  0
  4  9  1  0  0  0  0
  5  6  4  0  0  0  0
  6  7  4  0  0  0  0
  7  8  1  0  0  0  0
  9 10  1  0  0  0  0
  9 13  1  0  0  0  0
  9 14  1  0  0  0  0
 10 11  1  0  0  0  0
 10 14  1  0  0  0  0
 11 12  1  0  0  0  0
 12 13  1  0  0  0  0
 14 15  1  0  0  0  0
 15 16  4  0  0  0  0
 15 19  4  0  0  0  0
 16 17  4  0  0  0  0
 17 18  4  0  0  0  0
 17 20  1  0  0  0  0
 18 19  4  0  0  0  0
M  END
>  <Name_Molregno>
596886

>  <Dopamine transporter>
6.9

>  <Norepinephrine transporter>
7.7

>  <Serotonin transporter>
7.8

$$$$
596887
  Marvin  02231216192D 0   1.00000     0.00000     0

 20 23  0  0  1  0  0  0  0  0999 V2000
    1.2565   -0.8402    0.0000 Cl  0  0  0  0  0  0  0  0  0
    2.0770   -0.7540    0.0000 C   0  0  0  0  0  0  0  0  0
    2.4125   -0.0003    0.0000 C   0  0  0  0  0  0  0  0  0
    3.2330    0.0859    0.0000 C   0  0  0  0  0  0  0  0  0
    3.7179   -0.5815    0.0000 C   0  0  0  0  0  0  0  0  0
    3.3824   -1.3352    0.0000 C   0  0  0  0  0  0  0  0  0
    2.5619   -1.4214    0.0000 C   0  0  0  0  0  0  0  0  0
    2.2263   -2.1751    0.0000 Cl  0  0  0  0  0  0  0  0  0
    3.5686    0.8396    0.0000 C   0  0  0  0  0  0  0  0  0
    3.5686    1.6646    0.0000 C   0  0  0  0  0  0  0  0  0
    4.3532    1.9195    0.0000 C   0  0  0  0  0  0  0  0  0
    4.8381    1.2521    0.0000 N   0  0  0  0  0  0  0  0  0
    4.3532    0.5846    0.0000 C   0  0  0  0  0  0  0  0  0
    2.8541    1.2521    0.0000 C   0  0  0  0  0  0  0  0  0
    2.0291    1.2521    0.0000 C   0  0  0  0  0  0  0  0  0
    1.5442    0.5846    0.0000 O   0  0  0  0  0  0  0  0  0
    0.7595    0.8396    0.0000 C   0  0  0  0  0  0  0  0  0
    0.7595    1.6646    0.0000 C   0  0  0  0  0  0  0  0  0
    1.5442    1.9195    0.0000 N   0  0  0  0  0  0  0  0  0
    0.0921    2.1495    0.0000 C   0  0  0  0  0  0  0  0  0
  1  2  1  0  0  0  0
  2  3  4  0  0  0  0
  2  7  4  0  0  0  0
  3  4  4  0  0  0  0
  4  5  4  0  0  0  0
  4  9  1  0  0  0  0
  5  6  4  0  0  0  0
  6  7  4  0  0  0  0
  7  8  1  0  0  0  0
  9 10  1  0  0  0  0
  9 13  1  0  0  0  0
  9 14  1  0  0  0  0
 10 11  1  0  0  0  0
 10 14  1  0  0  0  0
 11 12  1  0  0  0  0
 12 13  1  0  0  0  0
 14 15  1  0  0  0  0
 15 16  4  0  0  0  0
 15 19  4  0  0  0  0
 16 17  4  0  0  0  0
 17 18  4  0  0  0  0
 18 19  4  0  0  0  0
 18 20  1  0  0  0  0
M  END
>  <Name_Molregno>
596887

>  <Dopamine transporter>
7.5

>  <Norepinephrine transporter>
8

>  <Serotonin transporter>
9

$$$$
596888
  Marvin  02231216192D 0   1.00000     0.00000     0

 21 24  0  0  1  0  0  0  0  0999 V2000
    4.0747   -2.5543    0.0000 Cl  0  0  0  0  0  0  0  0  0
    3.5897   -1.8869    0.0000 C   0  0  0  0  0  0  0  0  0
    3.9253   -1.1332    0.0000 C   0  0  0  0  0  0  0  0  0
    3.4404   -0.4658    0.0000 C   0  0  0  0  0  0  0  0  0
    2.6199   -0.5520    0.0000 C   0  0  0  0  0  0  0  0  0
    2.2843   -1.3057    0.0000 C   0  0  0  0  0  0  0  0  0
    2.7693   -1.9731    0.0000 C   0  0  0  0  0  0  0  0  0
    2.4337   -2.7268    0.0000 Cl  0  0  0  0  0  0  0  0  0
    3.7759    0.2879    0.0000 C   0  0  0  0  0  0  0  0  0
    3.7759    1.1129    0.0000 C   0  0  0  0  0  0  0  0  0
    4.5606    1.3678    0.0000 C   0  0  0  0  0  0  0  0  0
    5.0455    0.7004    0.0000 N   0  0  0  0  0  0  0  0  0
    4.5606    0.0330    0.0000 C   0  0  0  0  0  0  0  0  0
    3.0615    0.7004    0.0000 C   0  0  0  0  0  0  0  0  0
    2.2365    0.7004    0.0000 C   0  0  0  0  0  0  0  0  0
    1.8240   -0.0141    0.0000 C   0  0  0  0  0  0  0  0  0
    1.0035   -0.1003    0.0000 S   0  0  0  0  0  0  0  0  0
    0.8320   -0.9073    0.0000 C   0  0  0  0  0  0  0  0  0
    1.5464   -1.3198    0.0000 C   0  0  0  0  0  0  0  0  0
    2.1595   -0.7677    0.0000 N   0  0  0  0  0  0  0  0  0
    1.6327   -2.1403    0.0000 C   0  0  0  0  0  0  0  0  0
  1  2  1  0  0  0  0
  2  3  4  0  0  0  0
  2  7  4  0  0  0  0
  3  4  4  0  0  0  0
  4  5  4  0  0  0  0
  4  9  1  0  0  0  0
  5  6  4  0  0  0  0
  6  7  4  0  0  0  0
  7  8  1  0  0  0  0
  9 10  1  0  0  0  0
  9 13  1  0  0  0  0
  9 14  1  0  0  0  0
 10 11  1  0  0  0  0
 10 14  1  0  0  0  0
 11 12  1  0  0  0  0
 12 13  1  0  0  0  0
 14 15  1  0  0  0  0
 15 16  1  0  0  0  0
 16 17  4  0  0  0  0
 16 20  4  0  0  0  0
 17 18  4  0  0  0  0
 18 19  4  0  0  0  0
 19 20  4  0  0  0  0
 19 21  1  0  0  0  0
M  END
>  <Name_Molregno>
596888

>  <Dopamine transporter>
7.57

>  <Norepinephrine transporter>
8.83

>  <Serotonin transporter>
9.2

$$$$
596968
  Marvin  02231216192D 0   1.00000     0.00000     0

 18 20  0  0  1  0  0  0  0  0999 V2000
    1.6508    0.9756    0.0000 Cl  0  0  0  0  0  0  0  0  0
    1.3687    0.2004    0.0000 C   0  0  0  0  0  0  0  0  0
    1.8990   -0.4316    0.0000 C   0  0  0  0  0  0  0  0  0
    1.6168   -1.2069    0.0000 C   0  0  0  0  0  0  0  0  0
    0.8043   -1.3501    0.0000 C   0  0  0  0  0  0  0  0  0
    0.2740   -0.7181    0.0000 C   0  0  0  0  0  0  0  0  0
    0.5562    0.0571    0.0000 C   0  0  0  0  0  0  0  0  0
    0.0259    0.6891    0.0000 Cl  0  0  0  0  0  0  0  0  0
    2.1471   -1.8388    0.0000 C   0  0  0  0  0  0  0  0  0
    2.8616   -2.2513    0.0000 C   0  0  0  0  0  0  0  0  0
    2.8616   -1.4263    0.0000 C   0  0  0  0  0  0  0  0  0
    3.6462   -1.1714    0.0000 C   0  0  0  0  0  0  0  0  0
    4.1311   -1.8388    0.0000 N   0  0  0  0  0  0  0  0  0
    3.6462   -2.5063    0.0000 C   0  0  0  0  0  0  0  0  0
    1.6168   -2.4708    0.0000 C   0  0  0  0  0  0  0  0  0
    1.8990   -3.2461    0.0000 O   0  0  0  0  0  0  0  0  0
    1.3687   -3.8781    0.0000 C   0  0  0  0  0  0  0  0  0
    1.6508   -4.6533    0.0000 C   0  0  0  0  0  0  0  0  0
  1  2  1  0  0  0  0
  2  3  4  0  0  0  0
  2  7  4  0  0  0  0
  3  4  4  0  0  0  0
  4  5  4  0  0  0  0
  4  9  1  0  0  0  0
  5  6  4  0  0  0  0
  6  7  4  0  0  0  0
  7  8  1  0  0  0  0
  9 10  1  0  0  0  0
  9 11  1  0  0  0  0
  9 15  1  0  0  0  0
 10 11  1  0  0  0  0
 10 14  1  0  0  0  0
 11 12  1  0  0  0  0
 12 13  1  0  0  0  0
 13 14  1  0  0  0  0
 15 16  1  0  0  0  0
 16 17  1  0  0  0  0
 17 18  1  0  0  0  0
M  END
>  <Name_Molregno>
596968

>  <Dopamine transporter>
6.45

>  <Norepinephrine transporter>
6.25

>  <Serotonin transporter>
7.45

$$$$
596970
  Marvin  02231216192D 0   1.00000     0.00000     0

 20 23  0  0  1  0  0  0  0  0999 V2000
    2.8801    1.5429    0.0000 Cl  0  0  0  0  0  0  0  0  0
    2.5980    0.7677    0.0000 C   0  0  0  0  0  0  0  0  0
    3.1283    0.1357    0.0000 C   0  0  0  0  0  0  0  0  0
    2.8461   -0.6396    0.0000 C   0  0  0  0  0  0  0  0  0
    2.0336   -0.7828    0.0000 C   0  0  0  0  0  0  0  0  0
    1.5033   -0.1508    0.0000 C   0  0  0  0  0  0  0  0  0
    1.7855    0.6244    0.0000 C   0  0  0  0  0  0  0  0  0
    1.2552    1.2564    0.0000 Cl  0  0  0  0  0  0  0  0  0
    3.3764   -1.2716    0.0000 C   0  0  0  0  0  0  0  0  0
    4.0909   -1.6841    0.0000 C   0  0  0  0  0  0  0  0  0
    4.0909   -0.8591    0.0000 C   0  0  0  0  0  0  0  0  0
    4.8755   -0.6041    0.0000 C   0  0  0  0  0  0  0  0  0
    5.3604   -1.2716    0.0000 N   0  0  0  0  0  0  0  0  0
    4.8755   -1.9390    0.0000 C   0  0  0  0  0  0  0  0  0
    2.8461   -1.9035    0.0000 C   0  0  0  0  0  0  0  0  0
    2.0336   -1.7603    0.0000 O   0  0  0  0  0  0  0  0  0
    1.5033   -2.3923    0.0000 C   0  0  0  0  0  0  0  0  0
    0.6909   -2.2490    0.0000 C   0  0  0  0  0  0  0  0  0
   -0.0844   -2.5312    0.0000 C   0  0  0  0  0  0  0  0  0
    0.0589   -1.7187    0.0000 C   0  0  0  0  0  0  0  0  0
  1  2  1  0  0  0  0
  2  3  4  0  0  0  0
  2  7  4  0  0  0  0
  3  4  4  0  0  0  0
  4  5  4  0  0  0  0
  4  9  1  0  0  0  0
  5  6  4  0  0  0  0
  6  7  4  0  0  0  0
  7  8  1  0  0  0  0
  9 10  1  0  0  0  0
  9 11  1  0  0  0  0
  9 15  1  0  0  0  0
 10 11  1  0  0  0  0
 10 14  1  0  0  0  0
 11 12  1  0  0  0  0
 12 13  1  0  0  0  0
 13 14  1  0  0  0  0
 15 16  1  0  0  0  0
 16 17  1  0  0  0  0
 17 18  1  0  0  0  0
 18 19  1  0  0  0  0
 18 20  1  0  0  0  0
 19 20  1  0  0  0  0
M  END
>  <Name_Molregno>
596970

>  <Dopamine transporter>
8

>  <Norepinephrine transporter>
8.1

>  <Serotonin transporter>
9.2

$$$$
596971
  Marvin  02231216192D 0   1.00000     0.00000     0

 20 23  0  0  1  0  0  0  0  0999 V2000
    2.3904    2.0002    0.0000 Cl  0  0  0  0  0  0  0  0  0
    2.1082    1.2250    0.0000 C   0  0  0  0  0  0  0  0  0
    2.6385    0.5930    0.0000 C   0  0  0  0  0  0  0  0  0
    2.3563   -0.1823    0.0000 C   0  0  0  0  0  0  0  0  0
    1.5439   -0.3255    0.0000 C   0  0  0  0  0  0  0  0  0
    1.0136    0.3065    0.0000 C   0  0  0  0  0  0  0  0  0
    1.2957    1.0817    0.0000 C   0  0  0  0  0  0  0  0  0
    0.7654    1.7137    0.0000 Cl  0  0  0  0  0  0  0  0  0
    2.8866   -0.8142    0.0000 C   0  0  0  0  0  0  0  0  0
    3.6011   -1.2267    0.0000 C   0  0  0  0  0  0  0  0  0
    3.6011   -0.4017    0.0000 C   0  0  0  0  0  0  0  0  0
    4.3857   -0.1468    0.0000 C   0  0  0  0  0  0  0  0  0
    4.8706   -0.8142    0.0000 N   0  0  0  0  0  0  0  0  0
    4.3857   -1.4817    0.0000 C   0  0  0  0  0  0  0  0  0
    2.3563   -1.4462    0.0000 C   0  0  0  0  0  0  0  0  0
    2.6385   -2.2215    0.0000 O   0  0  0  0  0  0  0  0  0
    2.1082   -2.8535    0.0000 C   0  0  0  0  0  0  0  0  0
    2.1801   -3.6753    0.0000 C   0  0  0  0  0  0  0  0  0
    1.3582   -3.7472    0.0000 C   0  0  0  0  0  0  0  0  0
    1.2863   -2.9254    0.0000 C   0  0  0  0  0  0  0  0  0
  1  2  1  0  0  0  0
  2  3  4  0  0  0  0
  2  7  4  0  0  0  0
  3  4  4  0  0  0  0
  4  5  4  0  0  0  0
  4  9  1  0  0  0  0
  5  6  4  0  0  0  0
  6  7  4  0  0  0  0
  7  8  1  0  0  0  0
  9 10  1  0  0  0  0
  9 11  1  0  0  0  0
  9 15  1  0  0  0  0
 10 11  1  0  0  0  0
 10 14  1  0  0  0  0
 11 12  1  0  0  0  0
 12 13  1  0  0  0  0
 13 14  1  0  0  0  0
 15 16  1  0  0  0  0
 16 17  1  0  0  0  0
 17 18  1  0  0  0  0
 17 20  1  0  0  0  0
 18 19  1  0  0  0  0
 19 20  1  0  0  0  0
M  END
>  <Name_Molregno>
596971

>  <Dopamine transporter>
8.2

>  <Norepinephrine transporter>
8.6

>  <Serotonin transporter>
9.4

$$$$
596972
  Marvin  02231216192D 0   1.00000     0.00000     0

 21 23  0  0  1  0  0  0  0  0999 V2000
   -0.2090   -1.6003    0.0000 Cl  0  0  0  0  0  0  0  0  0
    0.6034   -1.7435    0.0000 C   0  0  0  0  0  0  0  0  0
    1.1337   -1.1115    0.0000 C   0  0  0  0  0  0  0  0  0
    1.9462   -1.2548    0.0000 C   0  0  0  0  0  0  0  0  0
    2.2284   -2.0300    0.0000 C   0  0  0  0  0  0  0  0  0
    1.6981   -2.6620    0.0000 C   0  0  0  0  0  0  0  0  0
    0.8856   -2.5188    0.0000 C   0  0  0  0  0  0  0  0  0
    0.3553   -3.1507    0.0000 Cl  0  0  0  0  0  0  0  0  0
    2.4765   -0.6228    0.0000 C   0  0  0  0  0  0  0  0  0
    2.7587    0.1524    0.0000 C   0  0  0  0  0  0  0  0  0
    1.9462    0.0092    0.0000 C   0  0  0  0  0  0  0  0  0
    1.5589    0.7376    0.0000 C   0  0  0  0  0  0  0  0  0
    2.1320    1.3311    0.0000 N   0  0  0  0  0  0  0  0  0
    2.8735    0.9694    0.0000 C   0  0  0  0  0  0  0  0  0
    3.1910   -1.0353    0.0000 C   0  0  0  0  0  0  0  0  0
    3.9054   -0.6228    0.0000 O   0  0  0  0  0  0  0  0  0
    4.6199   -1.0353    0.0000 C   0  0  0  0  0  0  0  0  0
    5.3344   -0.6228    0.0000 C   0  0  0  0  0  0  0  0  0
    6.0489   -0.2103    0.0000 F   0  0  0  0  0  0  0  0  0
    5.7469   -1.3373    0.0000 F   0  0  0  0  0  0  0  0  0
    4.9219    0.0917    0.0000 F   0  0  0  0  0  0  0  0  0
  1  2  1  0  0  0  0
  2  3  4  0  0  0  0
  2  7  4  0  0  0  0
  3  4  4  0  0  0  0
  4  5  4  0  0  0  0
  4  9  1  0  0  0  0
  5  6  4  0  0  0  0
  6  7  4  0  0  0  0
  7  8  1  0  0  0  0
  9 10  1  0  0  0  0
  9 11  1  0  0  0  0
  9 15  1  0  0  0  0
 10 11  1  0  0  0  0
 10 14  1  0  0  0  0
 11 12  1  0  0  0  0
 12 13  1  0  0  0  0
 13 14  1  0  0  0  0
 15 16  1  0  0  0  0
 16 17  1  0  0  0  0
 17 18  1  0  0  0  0
 18 19  1  0  0  0  0
 18 20  1  0  0  0  0
 18 21  1  0  0  0  0
M  END
>  <Name_Molregno>
596972

>  <Dopamine transporter>
7.6

>  <Norepinephrine transporter>
7.6

>  <Serotonin transporter>
9

$$$$
597034
  Marvin  02231216192D 0   1.00000     0.00000     0

 20 22  0  0  1  0  0  0  0  0999 V2000
    1.4639   -3.0910    0.0000 Cl  0  0  0  0  0  0  0  0  0
    1.9942   -2.4590    0.0000 C   0  0  0  0  0  0  0  0  0
    1.7121   -1.6838    0.0000 C   0  0  0  0  0  0  0  0  0
    2.2424   -1.0518    0.0000 C   0  0  0  0  0  0  0  0  0
    3.0548   -1.1951    0.0000 C   0  0  0  0  0  0  0  0  0
    3.3370   -1.9703    0.0000 C   0  0  0  0  0  0  0  0  0
    2.8067   -2.6023    0.0000 C   0  0  0  0  0  0  0  0  0
    3.0889   -3.3775    0.0000 Cl  0  0  0  0  0  0  0  0  0
    1.9602   -0.2765    0.0000 C   0  0  0  0  0  0  0  0  0
    1.4299    0.3554    0.0000 C   0  0  0  0  0  0  0  0  0
    1.1477   -0.4198    0.0000 C   0  0  0  0  0  0  0  0  0
    0.3232   -0.3910    0.0000 C   0  0  0  0  0  0  0  0  0
    0.0958    0.4020    0.0000 N   0  0  0  0  0  0  0  0  0
    0.7798    0.8634    0.0000 C   0  0  0  0  0  0  0  0  0
    2.6747    0.1360    0.0000 C   0  0  0  0  0  0  0  0  0
    3.3891   -0.2765    0.0000 O   0  0  0  0  0  0  0  0  0
    4.1036    0.1360    0.0000 C   0  0  0  0  0  0  0  0  0
    4.8181   -0.2765    0.0000 C   0  0  0  0  0  0  0  0  0
    5.5325    0.1360    0.0000 C   0  0  0  0  0  0  0  0  0
    4.1036    0.9610    0.0000 C   0  0  0  0  0  0  0  0  0
  1  2  1  0  0  0  0
  2  3  4  0  0  0  0
  2  7  4  0  0  0  0
  3  4  4  0  0  0  0
  4  5  4  0  0  0  0
  4  9  1  0  0  0  0
  5  6  4  0  0  0  0
  6  7  4  0  0  0  0
  7  8  1  0  0  0  0
  9 10  1  0  0  0  0
  9 11  1  0  0  0  0
  9 15  1  0  0  0  0
 10 11  1  0  0  0  0
 10 14  1  0  0  0  0
 11 12  1  0  0  0  0
 12 13  1  0  0  0  0
 13 14  1  0  0  0  0
 15 16  1  0  0  0  0
 16 17  1  0  0  0  0
 17 18  1  0  0  0  0
 17 20  1  0  0  0  0
 18 19  1  0  0  0  0
M  END
>  <Name_Molregno>
597034

>  <Dopamine transporter>
8.1

>  <Norepinephrine transporter>
8.7

>  <Serotonin transporter>
9.6

$$$$
597035
  Marvin  02231216192D 0   1.00000     0.00000     0

 18 20  0  0  1  0  0  0  0  0999 V2000
    1.6508    0.9756    0.0000 Cl  0  0  0  0  0  0  0  0  0
    1.3687    0.2004    0.0000 C   0  0  0  0  0  0  0  0  0
    1.8990   -0.4316    0.0000 C   0  0  0  0  0  0  0  0  0
    1.6168   -1.2069    0.0000 C   0  0  0  0  0  0  0  0  0
    0.8043   -1.3501    0.0000 C   0  0  0  0  0  0  0  0  0
    0.2740   -0.7181    0.0000 C   0  0  0  0  0  0  0  0  0
    0.5562    0.0571    0.0000 C   0  0  0  0  0  0  0  0  0
    0.0259    0.6891    0.0000 Cl  0  0  0  0  0  0  0  0  0
    2.1471   -1.8388    0.0000 C   0  0  0  0  0  0  0  0  0
    2.8616   -2.2513    0.0000 C   0  0  0  0  0  0  0  0  0
    2.8616   -1.4263    0.0000 C   0  0  0  0  0  0  0  0  0
    3.6462   -1.1714    0.0000 C   0  0  0  0  0  0  0  0  0
    4.1311   -1.8388    0.0000 N   0  0  0  0  0  0  0  0  0
    3.6462   -2.5063    0.0000 C   0  0  0  0  0  0  0  0  0
    1.6168   -2.4708    0.0000 C   0  0  0  0  0  0  0  0  0
    1.8990   -3.2461    0.0000 C   0  0  0  0  0  0  0  0  0
    1.3687   -3.8781    0.0000 O   0  0  0  0  0  0  0  0  0
    1.6508   -4.6533    0.0000 C   0  0  0  0  0  0  0  0  0
  1  2  1  0  0  0  0
  2  3  4  0  0  0  0
  2  7  4  0  0  0  0
  3  4  4  0  0  0  0
  4  5  4  0  0  0  0
  4  9  1  0  0  0  0
  5  6  4  0  0  0  0
  6  7  4  0  0  0  0
  7  8  1  0  0  0  0
  9 10  1  0  0  0  0
  9 11  1  0  0  0  0
  9 15  1  0  0  0  0
 10 11  1  0  0  0  0
 10 14  1  0  0  0  0
 11 12  1  0  0  0  0
 12 13  1  0  0  0  0
 13 14  1  0  0  0  0
 15 16  1  0  0  0  0
 16 17  1  0  0  0  0
 17 18  1  0  0  0  0
M  END
>  <Name_Molregno>
597035

>  <Dopamine transporter>
8

>  <Norepinephrine transporter>
8.1

>  <Serotonin transporter>
9.5

$$$$
597036
  Marvin  02231216192D 0   1.00000     0.00000     0

 19 21  0  0  1  0  0  0  0  0999 V2000
    1.4738   -3.0291    0.0000 Cl  0  0  0  0  0  0  0  0  0
    2.0041   -2.3971    0.0000 C   0  0  0  0  0  0  0  0  0
    1.7220   -1.6219    0.0000 C   0  0  0  0  0  0  0  0  0
    2.2523   -0.9899    0.0000 C   0  0  0  0  0  0  0  0  0
    3.0647   -1.1332    0.0000 C   0  0  0  0  0  0  0  0  0
    3.3469   -1.9084    0.0000 C   0  0  0  0  0  0  0  0  0
    2.8166   -2.5404    0.0000 C   0  0  0  0  0  0  0  0  0
    3.0988   -3.3156    0.0000 Cl  0  0  0  0  0  0  0  0  0
    1.9701   -0.2147    0.0000 C   0  0  0  0  0  0  0  0  0
    1.4398    0.4173    0.0000 C   0  0  0  0  0  0  0  0  0
    1.1576   -0.3579    0.0000 C   0  0  0  0  0  0  0  0  0
    0.3331   -0.3291    0.0000 C   0  0  0  0  0  0  0  0  0
    0.1057    0.4639    0.0000 N   0  0  0  0  0  0  0  0  0
    0.7897    0.9252    0.0000 C   0  0  0  0  0  0  0  0  0
    2.6846    0.1978    0.0000 C   0  0  0  0  0  0  0  0  0
    3.3990   -0.2147    0.0000 C   0  0  0  0  0  0  0  0  0
    4.1135    0.1978    0.0000 O   0  0  0  0  0  0  0  0  0
    4.8280   -0.2147    0.0000 C   0  0  0  0  0  0  0  0  0
    5.5424    0.1978    0.0000 C   0  0  0  0  0  0  0  0  0
  1  2  1  0  0  0  0
  2  3  4  0  0  0  0
  2  7  4  0  0  0  0
  3  4  4  0  0  0  0
  4  5  4  0  0  0  0
  4  9  1  0  0  0  0
  5  6  4  0  0  0  0
  6  7  4  0  0  0  0
  7  8  1  0  0  0  0
  9 10  1  0  0  0  0
  9 11  1  0  0  0  0
  9 15  1  0  0  0  0
 10 11  1  0  0  0  0
 10 14  1  0  0  0  0
 11 12  1  0  0  0  0
 12 13  1  0  0  0  0
 13 14  1  0  0  0  0
 15 16  1  0  0  0  0
 16 17  1  0  0  0  0
 17 18  1  0  0  0  0
 18 19  1  0  0  0  0
M  END
>  <Name_Molregno>
597036

>  <Dopamine transporter>
7.8

>  <Norepinephrine transporter>
8.1

>  <Serotonin transporter>
9.3

$$$$
597037
  Marvin  02231216192D 0   1.00000     0.00000     0

 20 22  0  0  1  0  0  0  0  0999 V2000
    1.4810   -3.0576    0.0000 Cl  0  0  0  0  0  0  0  0  0
    2.0113   -2.4257    0.0000 C   0  0  0  0  0  0  0  0  0
    1.7291   -1.6504    0.0000 C   0  0  0  0  0  0  0  0  0
    2.2594   -1.0184    0.0000 C   0  0  0  0  0  0  0  0  0
    3.0719   -1.1617    0.0000 C   0  0  0  0  0  0  0  0  0
    3.3540   -1.9369    0.0000 C   0  0  0  0  0  0  0  0  0
    2.8237   -2.5689    0.0000 C   0  0  0  0  0  0  0  0  0
    3.1059   -3.3442    0.0000 Cl  0  0  0  0  0  0  0  0  0
    1.9772   -0.2432    0.0000 C   0  0  0  0  0  0  0  0  0
    1.4469    0.3888    0.0000 C   0  0  0  0  0  0  0  0  0
    1.1648   -0.3864    0.0000 C   0  0  0  0  0  0  0  0  0
    0.3403   -0.3576    0.0000 C   0  0  0  0  0  0  0  0  0
    0.1129    0.4354    0.0000 N   0  0  0  0  0  0  0  0  0
    0.7968    0.8967    0.0000 C   0  0  0  0  0  0  0  0  0
    2.6917    0.1693    0.0000 C   0  0  0  0  0  0  0  0  0
    3.4062   -0.2432    0.0000 C   0  0  0  0  0  0  0  0  0
    4.1206    0.1693    0.0000 O   0  0  0  0  0  0  0  0  0
    4.8351   -0.2432    0.0000 C   0  0  0  0  0  0  0  0  0
    5.5496    0.1693    0.0000 C   0  0  0  0  0  0  0  0  0
    4.8351   -1.0682    0.0000 C   0  0  0  0  0  0  0  0  0
  1  2  1  0  0  0  0
  2  3  4  0  0  0  0
  2  7  4  0  0  0  0
  3  4  4  0  0  0  0
  4  5  4  0  0  0  0
  4  9  1  0  0  0  0
  5  6  4  0  0  0  0
  6  7  4  0  0  0  0
  7  8  1  0  0  0  0
  9 10  1  0  0  0  0
  9 11  1  0  0  0  0
  9 15  1  0  0  0  0
 10 11  1  0  0  0  0
 10 14  1  0  0  0  0
 11 12  1  0  0  0  0
 12 13  1  0  0  0  0
 13 14  1  0  0  0  0
 15 16  1  0  0  0  0
 16 17  1  0  0  0  0
 17 18  1  0  0  0  0
 18 19  1  0  0  0  0
 18 20  1  0  0  0  0
M  END
>  <Name_Molregno>
597037

>  <Dopamine transporter>
8.2

>  <Norepinephrine transporter>
8.8

>  <Serotonin transporter>
9.5

$$$$
597038
  Marvin  02231216192D 0   1.00000     0.00000     0

 21 23  0  0  1  0  0  0  0  0999 V2000
   -0.2123   -1.5795    0.0000 Cl  0  0  0  0  0  0  0  0  0
    0.6002   -1.7227    0.0000 C   0  0  0  0  0  0  0  0  0
    1.1305   -1.0907    0.0000 C   0  0  0  0  0  0  0  0  0
    1.9430   -1.2340    0.0000 C   0  0  0  0  0  0  0  0  0
    2.2251   -2.0092    0.0000 C   0  0  0  0  0  0  0  0  0
    1.6948   -2.6412    0.0000 C   0  0  0  0  0  0  0  0  0
    0.8824   -2.4980    0.0000 C   0  0  0  0  0  0  0  0  0
    0.3521   -3.1300    0.0000 Cl  0  0  0  0  0  0  0  0  0
    2.4733   -0.6020    0.0000 C   0  0  0  0  0  0  0  0  0
    2.7554    0.1732    0.0000 C   0  0  0  0  0  0  0  0  0
    1.9430    0.0300    0.0000 C   0  0  0  0  0  0  0  0  0
    1.5557    0.7584    0.0000 C   0  0  0  0  0  0  0  0  0
    2.1288    1.3519    0.0000 N   0  0  0  0  0  0  0  0  0
    2.8703    0.9902    0.0000 C   0  0  0  0  0  0  0  0  0
    3.1877   -1.0145    0.0000 C   0  0  0  0  0  0  0  0  0
    3.9022   -0.6020    0.0000 C   0  0  0  0  0  0  0  0  0
    4.6167   -1.0145    0.0000 O   0  0  0  0  0  0  0  0  0
    5.3312   -0.6020    0.0000 C   0  0  0  0  0  0  0  0  0
    6.0456   -1.0145    0.0000 C   0  0  0  0  0  0  0  0  0
    6.7601   -0.6020    0.0000 C   0  0  0  0  0  0  0  0  0
    5.3312    0.2230    0.0000 C   0  0  0  0  0  0  0  0  0
  1  2  1  0  0  0  0
  2  3  4  0  0  0  0
  2  7  4  0  0  0  0
  3  4  4  0  0  0  0
  4  5  4  0  0  0  0
  4  9  1  0  0  0  0
  5  6  4  0  0  0  0
  6  7  4  0  0  0  0
  7  8  1  0  0  0  0
  9 10  1  0  0  0  0
  9 11  1  0  0  0  0
  9 15  1  0  0  0  0
 10 11  1  0  0  0  0
 10 14  1  0  0  0  0
 11 12  1  0  0  0  0
 12 13  1  0  0  0  0
 13 14  1  0  0  0  0
 15 16  1  0  0  0  0
 16 17  1  0  0  0  0
 17 18  1  0  0  0  0
 18 19  1  0  0  0  0
 18 21  1  0  0  0  0
 19 20  1  0  0  0  0
M  END
>  <Name_Molregno>
597038

>  <Dopamine transporter>
8.3

>  <Norepinephrine transporter>
8.4

>  <Serotonin transporter>
9.5

$$$$
597039
  Marvin  02231216192D 0   1.00000     0.00000     0

 21 24  0  0  1  0  0  0  0  0999 V2000
    3.1725    1.6016    0.0000 Cl  0  0  0  0  0  0  0  0  0
    2.8904    0.8263    0.0000 C   0  0  0  0  0  0  0  0  0
    3.4207    0.1943    0.0000 C   0  0  0  0  0  0  0  0  0
    3.1385   -0.5809    0.0000 C   0  0  0  0  0  0  0  0  0
    2.3260   -0.7242    0.0000 C   0  0  0  0  0  0  0  0  0
    1.7957   -0.0922    0.0000 C   0  0  0  0  0  0  0  0  0
    2.0779    0.6831    0.0000 C   0  0  0  0  0  0  0  0  0
    1.5476    1.3151    0.0000 Cl  0  0  0  0  0  0  0  0  0
    3.6688   -1.2129    0.0000 C   0  0  0  0  0  0  0  0  0
    4.3833   -1.6254    0.0000 C   0  0  0  0  0  0  0  0  0
    4.3833   -0.8004    0.0000 C   0  0  0  0  0  0  0  0  0
    5.1679   -0.5454    0.0000 C   0  0  0  0  0  0  0  0  0
    5.6528   -1.2129    0.0000 N   0  0  0  0  0  0  0  0  0
    5.1679   -1.8803    0.0000 C   0  0  0  0  0  0  0  0  0
    3.1385   -1.8449    0.0000 C   0  0  0  0  0  0  0  0  0
    2.3260   -1.7016    0.0000 C   0  0  0  0  0  0  0  0  0
    1.7957   -2.3336    0.0000 O   0  0  0  0  0  0  0  0  0
    0.9833   -2.1903    0.0000 C   0  0  0  0  0  0  0  0  0
    0.3075   -2.6635    0.0000 C   0  0  0  0  0  0  0  0  0
   -0.1657   -1.9877    0.0000 C   0  0  0  0  0  0  0  0  0
    0.5101   -1.5145    0.0000 C   0  0  0  0  0  0  0  0  0
  1  2  1  0  0  0  0
  2  3  4  0  0  0  0
  2  7  4  0  0  0  0
  3  4  4  0  0  0  0
  4  5  4  0  0  0  0
  4  9  1  0  0  0  0
  5  6  4  0  0  0  0
  6  7  4  0  0  0  0
  7  8  1  0  0  0  0
  9 10  1  0  0  0  0
  9 11  1  0  0  0  0
  9 15  1  0  0  0  0
 10 11  1  0  0  0  0
 10 14  1  0  0  0  0
 11 12  1  0  0  0  0
 12 13  1  0  0  0  0
 13 14  1  0  0  0  0
 15 16  1  0  0  0  0
 16 17  1  0  0  0  0
 17 18  1  0  0  0  0
 18 19  1  0  0  0  0
 18 21  1  0  0  0  0
 19 20  1  0  0  0  0
 20 21  1  0  0  0  0
M  END
>  <Name_Molregno>
597039

>  <Dopamine transporter>
8.2

>  <Norepinephrine transporter>
8.4

>  <Serotonin transporter>
9.7

$$$$
598434
  Marvin  02231216192D 0   1.00000     0.00000     0

 20 21  0  0  0  0  0  0  0  0999 V2000
   -0.3256    0.0903    0.0000 S   0  0  0  0  0  0  0  0  0
   -0.3256   -0.7347    0.0000 C   0  0  0  0  0  0  0  0  0
    0.3889   -1.1472    0.0000 C   0  0  0  0  0  0  0  0  0
    0.3889   -1.9722    0.0000 C   0  0  0  0  0  0  0  0  0
    1.1033   -2.3847    0.0000 F   0  0  0  0  0  0  0  0  0
   -0.3256   -2.3847    0.0000 C   0  0  0  0  0  0  0  0  0
   -1.0401   -1.9722    0.0000 C   0  0  0  0  0  0  0  0  0
   -1.0401   -1.1472    0.0000 C   0  0  0  0  0  0  0  0  0
   -1.7545   -0.7347    0.0000 C   0  0  0  0  0  0  0  0  0
   -2.4690   -1.1472    0.0000 N   0  0  0  0  0  0  0  0  0
   -3.1835   -0.7347    0.0000 C   0  0  0  0  0  0  0  0  0
   -2.4690   -1.9722    0.0000 C   0  0  0  0  0  0  0  0  0
    0.3889    0.5028    0.0000 C   0  0  0  0  0  0  0  0  0
    0.3889    1.3278    0.0000 C   0  0  0  0  0  0  0  0  0
    1.1033    1.7403    0.0000 C   0  0  0  0  0  0  0  0  0
    1.8178    1.3278    0.0000 C   0  0  0  0  0  0  0  0  0
    1.8178    0.5028    0.0000 C   0  0  0  0  0  0  0  0  0
    1.1033    0.0903    0.0000 C   0  0  0  0  0  0  0  0  0
    1.1033   -0.7347    0.0000 N   0  0  0  0  0  0  0  0  0
    2.5323    1.7403    0.0000 C   0  0  0  0  0  0  0  0  0
  1  2  1  0  0  0  0
  1 13  1  0  0  0  0
  2  3  4  0  0  0  0
  2  8  4  0  0  0  0
  3  4  4  0  0  0  0
  4  5  1  0  0  0  0
  4  6  4  0  0  0  0
  6  7  4  0  0  0  0
  7  8  4  0  0  0  0
  8  9  1  0  0  0  0
  9 10  1  0  0  0  0
 10 11  1  0  0  0  0
 10 12  1  0  0  0  0
 13 14  4  0  0  0  0
 13 18  4  0  0  0  0
 14 15  4  0  0  0  0
 15 16  4  0  0  0  0
 16 17  4  0  0  0  0
 16 20  1  0  0  0  0
 17 18  4  0  0  0  0
 18 19  1  0  0  0  0
M  END
>  <Name_Molregno>
598434

>  <Dopamine transporter>
5.91

>  <Norepinephrine transporter>
5.92

>  <Serotonin transporter>
7.89

$$$$
598435
  Marvin  02231216192D 0   1.00000     0.00000     0

 20 21  0  0  0  0  0  0  0  0999 V2000
   -1.1852   -0.2339    0.0000 F   0  0  0  0  0  0  0  0  0
   -1.1852   -1.0589    0.0000 C   0  0  0  0  0  0  0  0  0
   -0.4707   -1.4714    0.0000 C   0  0  0  0  0  0  0  0  0
   -0.4707   -2.2964    0.0000 C   0  0  0  0  0  0  0  0  0
    0.2437   -2.7089    0.0000 O   0  0  0  0  0  0  0  0  0
    0.9582   -2.2964    0.0000 C   0  0  0  0  0  0  0  0  0
    0.9582   -1.4714    0.0000 C   0  0  0  0  0  0  0  0  0
    1.6727   -1.0589    0.0000 C   0  0  0  0  0  0  0  0  0
    2.3871   -1.4714    0.0000 C   0  0  0  0  0  0  0  0  0
    2.3871   -2.2964    0.0000 C   0  0  0  0  0  0  0  0  0
    1.6727   -2.7089    0.0000 C   0  0  0  0  0  0  0  0  0
    1.6727   -3.5339    0.0000 N   0  0  0  0  0  0  0  0  0
    3.1016   -1.0589    0.0000 C   0  0  0  0  0  0  0  0  0
   -1.1852   -2.7089    0.0000 C   0  0  0  0  0  0  0  0  0
   -1.8997   -2.2964    0.0000 C   0  0  0  0  0  0  0  0  0
   -1.8997   -1.4714    0.0000 C   0  0  0  0  0  0  0  0  0
   -1.1852   -3.5339    0.0000 C   0  0  0  0  0  0  0  0  0
   -1.8997   -3.9464    0.0000 N   0  0  0  0  0  0  0  0  0
   -1.8997   -4.7714    0.0000 C   0  0  0  0  0  0  0  0  0
   -2.6141   -3.5339    0.0000 C   0  0  0  0  0  0  0  0  0
  1  2  1  0  0  0  0
  2  3  4  0  0  0  0
  2 16  4  0  0  0  0
  3  4  4  0  0  0  0
  4  5  1  0  0  0  0
  4 14  4  0  0  0  0
  5  6  1  0  0  0  0
  6  7  4  0  0  0  0
  6 11  4  0  0  0  0
  7  8  4  0  0  0  0
  8  9  4  0  0  0  0
  9 10  4  0  0  0  0
  9 13  1  0  0  0  0
 10 11  4  0  0  0  0
 11 12  1  0  0  0  0
 14 15  4  0  0  0  0
 14 17  1  0  0  0  0
 15 16  4  0  0  0  0
 17 18  1  0  0  0  0
 18 19  1  0  0  0  0
 18 20  1  0  0  0  0
M  END
>  <Name_Molregno>
598435

>  <Dopamine transporter>
6.02

>  <Norepinephrine transporter>
6.3

>  <Serotonin transporter>
8.15

$$$$
598436
  Marvin  02231216192D 0   1.00000     0.00000     0

 23 24  0  0  0  0  0  0  0  0999 V2000
    6.0263    1.5178    0.0000 F   0  0  0  0  0  0  0  0  0
    5.3119    1.1053    0.0000 C   0  0  0  0  0  0  0  0  0
    5.3119    0.2803    0.0000 C   0  0  0  0  0  0  0  0  0
    4.5974   -0.1322    0.0000 O   0  0  0  0  0  0  0  0  0
    4.5974   -0.9572    0.0000 C   0  0  0  0  0  0  0  0  0
    3.8829   -1.3697    0.0000 C   0  0  0  0  0  0  0  0  0
    3.8829   -2.1947    0.0000 C   0  0  0  0  0  0  0  0  0
    3.1684   -2.6072    0.0000 O   0  0  0  0  0  0  0  0  0
    2.4540   -2.1947    0.0000 C   0  0  0  0  0  0  0  0  0
    1.7395   -2.6072    0.0000 C   0  0  0  0  0  0  0  0  0
    1.0250   -2.1947    0.0000 C   0  0  0  0  0  0  0  0  0
    1.0250   -1.3697    0.0000 C   0  0  0  0  0  0  0  0  0
    1.7395   -0.9572    0.0000 C   0  0  0  0  0  0  0  0  0
    2.4540   -1.3697    0.0000 C   0  0  0  0  0  0  0  0  0
    3.1684   -0.9572    0.0000 N   0  0  0  0  0  0  0  0  0
    0.3106   -0.9572    0.0000 C   0  0  0  0  0  0  0  0  0
    4.5974   -2.6072    0.0000 C   0  0  0  0  0  0  0  0  0
    5.3119   -2.1947    0.0000 C   0  0  0  0  0  0  0  0  0
    5.3119   -1.3697    0.0000 C   0  0  0  0  0  0  0  0  0
    4.5974   -3.4322    0.0000 C   0  0  0  0  0  0  0  0  0
    3.8829   -3.8447    0.0000 N   0  0  0  0  0  0  0  0  0
    3.1684   -3.4322    0.0000 C   0  0  0  0  0  0  0  0  0
    3.8829   -4.6697    0.0000 C   0  0  0  0  0  0  0  0  0
  1  2  1  0  0  0  0
  2  3  1  0  0  0  0
  3  4  1  0  0  0  0
  4  5  1  0  0  0  0
  5  6  4  0  0  0  0
  5 19  4  0  0  0  0
  6  7  4  0  0  0  0
  7  8  1  0  0  0  0
  7 17  4  0  0  0  0
  8  9  1  0  0  0  0
  9 10  4  0  0  0  0
  9 14  4  0  0  0  0
 10 11  4  0  0  0  0
 11 12  4  0  0  0  0
 12 13  4  0  0  0  0
 12 16  1  0  0  0  0
 13 14  4  0  0  0  0
 14 15  1  0  0  0  0
 17 18  4  0  0  0  0
 17 20  1  0  0  0  0
 18 19  4  0  0  0  0
 20 21  1  0  0  0  0
 21 22  1  0  0  0  0
 21 23  1  0  0  0  0
M  END
>  <Name_Molregno>
598436

>  <Dopamine transporter>
6.14

>  <Norepinephrine transporter>
5.05

>  <Serotonin transporter>
6.28

$$$$
598437
  Marvin  02231216192D 0   1.00000     0.00000     0

 23 24  0  0  0  0  0  0  0  0999 V2000
    1.6218    0.9082    0.0000 F   0  0  0  0  0  0  0  0  0
    2.3363    0.4957    0.0000 C   0  0  0  0  0  0  0  0  0
    2.3363   -0.3293    0.0000 C   0  0  0  0  0  0  0  0  0
    3.0507   -0.7418    0.0000 O   0  0  0  0  0  0  0  0  0
    3.0507   -1.5668    0.0000 C   0  0  0  0  0  0  0  0  0
    3.7652   -1.9793    0.0000 C   0  0  0  0  0  0  0  0  0
    3.7652   -2.8043    0.0000 C   0  0  0  0  0  0  0  0  0
    4.4797   -3.2168    0.0000 C   0  0  0  0  0  0  0  0  0
    5.1941   -2.8043    0.0000 N   0  0  0  0  0  0  0  0  0
    5.1941   -1.9793    0.0000 C   0  0  0  0  0  0  0  0  0
    5.9086   -3.2168    0.0000 C   0  0  0  0  0  0  0  0  0
    3.0507   -3.2168    0.0000 C   0  0  0  0  0  0  0  0  0
    3.0507   -4.0418    0.0000 O   0  0  0  0  0  0  0  0  0
    2.3363   -4.4543    0.0000 C   0  0  0  0  0  0  0  0  0
    2.3363   -5.2793    0.0000 C   0  0  0  0  0  0  0  0  0
    1.6218   -5.6918    0.0000 C   0  0  0  0  0  0  0  0  0
    0.9073   -5.2793    0.0000 C   0  0  0  0  0  0  0  0  0
    0.9073   -4.4543    0.0000 C   0  0  0  0  0  0  0  0  0
    1.6218   -4.0418    0.0000 C   0  0  0  0  0  0  0  0  0
    1.6218   -3.2168    0.0000 N   0  0  0  0  0  0  0  0  0
    0.1928   -5.6918    0.0000 C   0  0  0  0  0  0  0  0  0
    2.3363   -2.8043    0.0000 C   0  0  0  0  0  0  0  0  0
    2.3363   -1.9793    0.0000 C   0  0  0  0  0  0  0  0  0
  1  2  1  0  0  0  0
  2  3  1  0  0  0  0
  3  4  1  0  0  0  0
  4  5  1  0  0  0  0
  5  6  4  0  0  0  0
  5 23  4  0  0  0  0
  6  7  4  0  0  0  0
  7  8  1  0  0  0  0
  7 12  4  0  0  0  0
  8  9  1  0  0  0  0
  9 10  1  0  0  0  0
  9 11  1  0  0  0  0
 12 13  1  0  0  0  0
 12 22  4  0  0  0  0
 13 14  1  0  0  0  0
 14 15  4  0  0  0  0
 14 19  4  0  0  0  0
 15 16  4  0  0  0  0
 16 17  4  0  0  0  0
 17 18  4  0  0  0  0
 17 21  1  0  0  0  0
 18 19  4  0  0  0  0
 19 20  1  0  0  0  0
 22 23  4  0  0  0  0
M  END
>  <Name_Molregno>
598437

>  <Dopamine transporter>
5.38

>  <Norepinephrine transporter>
6.18

>  <Serotonin transporter>
6.4

$$$$
598476
  Marvin  02231216192D 0   1.00000     0.00000     0

 24 25  0  0  0  0  0  0  0  0999 V2000
   -8.9326    0.0807    0.0000 F   0  0  0  0  0  0  0  0  0
   -8.2181    0.4932    0.0000 C   0  0  0  0  0  0  0  0  0
   -7.5036    0.0807    0.0000 C   0  0  0  0  0  0  0  0  0
   -6.7892    0.4932    0.0000 C   0  0  0  0  0  0  0  0  0
   -6.0747    0.0807    0.0000 O   0  0  0  0  0  0  0  0  0
   -5.3602    0.4932    0.0000 C   0  0  0  0  0  0  0  0  0
   -4.6457    0.0807    0.0000 C   0  0  0  0  0  0  0  0  0
   -3.9313    0.4932    0.0000 C   0  0  0  0  0  0  0  0  0
   -3.2168    0.0807    0.0000 O   0  0  0  0  0  0  0  0  0
   -3.2168   -0.7443    0.0000 C   0  0  0  0  0  0  0  0  0
   -2.5023   -1.1568    0.0000 C   0  0  0  0  0  0  0  0  0
   -2.5023   -1.9818    0.0000 C   0  0  0  0  0  0  0  0  0
   -3.2168   -2.3943    0.0000 C   0  0  0  0  0  0  0  0  0
   -3.9313   -1.9818    0.0000 C   0  0  0  0  0  0  0  0  0
   -3.9313   -1.1568    0.0000 C   0  0  0  0  0  0  0  0  0
   -4.6457   -0.7443    0.0000 N   0  0  0  0  0  0  0  0  0
   -3.2168   -3.2193    0.0000 C   0  0  0  0  0  0  0  0  0
   -3.9313    1.3182    0.0000 C   0  0  0  0  0  0  0  0  0
   -4.6457    1.7307    0.0000 C   0  0  0  0  0  0  0  0  0
   -5.3602    1.3182    0.0000 C   0  0  0  0  0  0  0  0  0
   -3.2168    1.7307    0.0000 C   0  0  0  0  0  0  0  0  0
   -2.5023    1.3182    0.0000 N   0  0  0  0  0  0  0  0  0
   -2.5023    0.4932    0.0000 C   0  0  0  0  0  0  0  0  0
   -1.7879    1.7307    0.0000 C   0  0  0  0  0  0  0  0  0
  1  2  1  0  0  0  0
  2  3  1  0  0  0  0
  3  4  1  0  0  0  0
  4  5  1  0  0  0  0
  5  6  1  0  0  0  0
  6  7  4  0  0  0  0
  6 20  4  0  0  0  0
  7  8  4  0  0  0  0
  8  9  1  0  0  0  0
  8 18  4  0  0  0  0
  9 10  1  0  0  0  0
 10 11  4  0  0  0  0
 10 15  4  0  0  0  0
 11 12  4  0  0  0  0
 12 13  4  0  0  0  0
 13 14  4  0  0  0  0
 13 17  1  0  0  0  0
 14 15  4  0  0  0  0
 15 16  1  0  0  0  0
 18 19  4  0  0  0  0
 18 21  1  0  0  0  0
 19 20  4  0  0  0  0
 21 22  1  0  0  0  0
 22 23  1  0  0  0  0
 22 24  1  0  0  0  0
M  END
>  <Name_Molregno>
598476

>  <Dopamine transporter>
6

>  <Norepinephrine transporter>
6.3

>  <Serotonin transporter>
6.35

$$$$
598477
  Marvin  02231216192D 0   1.00000     0.00000     0

 24 25  0  0  0  0  0  0  0  0999 V2000
   -1.7082    3.6750    0.0000 F   0  0  0  0  0  0  0  0  0
   -0.9938    3.2625    0.0000 C   0  0  0  0  0  0  0  0  0
   -0.2793    3.6750    0.0000 C   0  0  0  0  0  0  0  0  0
    0.4352    3.2625    0.0000 C   0  0  0  0  0  0  0  0  0
    1.1496    3.6750    0.0000 O   0  0  0  0  0  0  0  0  0
    1.8641    3.2625    0.0000 C   0  0  0  0  0  0  0  0  0
    2.5786    3.6750    0.0000 C   0  0  0  0  0  0  0  0  0
    3.2931    3.2625    0.0000 C   0  0  0  0  0  0  0  0  0
    4.0075    3.6750    0.0000 C   0  0  0  0  0  0  0  0  0
    4.0075    4.5000    0.0000 N   0  0  0  0  0  0  0  0  0
    3.2931    4.9125    0.0000 C   0  0  0  0  0  0  0  0  0
    4.7220    4.9125    0.0000 C   0  0  0  0  0  0  0  0  0
    3.2931    2.4375    0.0000 C   0  0  0  0  0  0  0  0  0
    4.0075    2.0250    0.0000 O   0  0  0  0  0  0  0  0  0
    4.7220    2.4375    0.0000 C   0  0  0  0  0  0  0  0  0
    4.7220    3.2625    0.0000 C   0  0  0  0  0  0  0  0  0
    5.4365    3.6750    0.0000 C   0  0  0  0  0  0  0  0  0
    6.1509    3.2625    0.0000 C   0  0  0  0  0  0  0  0  0
    6.1509    2.4375    0.0000 C   0  0  0  0  0  0  0  0  0
    5.4365    2.0250    0.0000 C   0  0  0  0  0  0  0  0  0
    5.4365    1.2000    0.0000 N   0  0  0  0  0  0  0  0  0
    6.8654    3.6750    0.0000 C   0  0  0  0  0  0  0  0  0
    2.5786    2.0250    0.0000 C   0  0  0  0  0  0  0  0  0
    1.8641    2.4375    0.0000 C   0  0  0  0  0  0  0  0  0
  1  2  1  0  0  0  0
  2  3  1  0  0  0  0
  3  4  1  0  0  0  0
  4  5  1  0  0  0  0
  5  6  1  0  0  0  0
  6  7  4  0  0  0  0
  6 24  4  0  0  0  0
  7  8  4  0  0  0  0
  8  9  1  0  0  0  0
  8 13  4  0  0  0  0
  9 10  1  0  0  0  0
 10 11  1  0  0  0  0
 10 12  1  0  0  0  0
 13 14  1  0  0  0  0
 13 23  4  0  0  0  0
 14 15  1  0  0  0  0
 15 16  4  0  0  0  0
 15 20  4  0  0  0  0
 16 17  4  0  0  0  0
 17 18  4  0  0  0  0
 18 19  4  0  0  0  0
 18 22  1  0  0  0  0
 19 20  4  0  0  0  0
 20 21  1  0  0  0  0
 23 24  4  0  0  0  0
M  END
>  <Name_Molregno>
598477

>  <Dopamine transporter>
5.16

>  <Norepinephrine transporter>
6.2

>  <Serotonin transporter>
8.15

$$$$
598478
  Marvin  02231216192D 0   1.00000     0.00000     0

 25 26  0  0  0  0  0  0  0  0999 V2000
   -0.4750    0.6953    0.0000 F   0  0  0  0  0  0  0  0  0
    0.2395    1.1078    0.0000 C   0  0  0  0  0  0  0  0  0
    0.9539    0.6953    0.0000 C   0  0  0  0  0  0  0  0  0
    1.6684    1.1078    0.0000 C   0  0  0  0  0  0  0  0  0
    2.3829    0.6953    0.0000 C   0  0  0  0  0  0  0  0  0
    3.0974    1.1078    0.0000 O   0  0  0  0  0  0  0  0  0
    3.8118    0.6953    0.0000 C   0  0  0  0  0  0  0  0  0
    4.5263    1.1078    0.0000 C   0  0  0  0  0  0  0  0  0
    5.2408    0.6953    0.0000 C   0  0  0  0  0  0  0  0  0
    5.9552    1.1078    0.0000 C   0  0  0  0  0  0  0  0  0
    5.9552    1.9328    0.0000 N   0  0  0  0  0  0  0  0  0
    5.2408    2.3453    0.0000 C   0  0  0  0  0  0  0  0  0
    6.6697    2.3453    0.0000 C   0  0  0  0  0  0  0  0  0
    5.2408   -0.1297    0.0000 C   0  0  0  0  0  0  0  0  0
    5.9552   -0.5422    0.0000 O   0  0  0  0  0  0  0  0  0
    6.6697   -0.1297    0.0000 C   0  0  0  0  0  0  0  0  0
    6.6697    0.6953    0.0000 C   0  0  0  0  0  0  0  0  0
    7.3842    1.1078    0.0000 C   0  0  0  0  0  0  0  0  0
    8.0987    0.6953    0.0000 C   0  0  0  0  0  0  0  0  0
    8.0987   -0.1297    0.0000 C   0  0  0  0  0  0  0  0  0
    7.3842   -0.5422    0.0000 C   0  0  0  0  0  0  0  0  0
    7.3842   -1.3672    0.0000 N   0  0  0  0  0  0  0  0  0
    8.8131    1.1078    0.0000 C   0  0  0  0  0  0  0  0  0
    4.5263   -0.5422    0.0000 C   0  0  0  0  0  0  0  0  0
    3.8118   -0.1297    0.0000 C   0  0  0  0  0  0  0  0  0
  1  2  1  0  0  0  0
  2  3  1  0  0  0  0
  3  4  1  0  0  0  0
  4  5  1  0  0  0  0
  5  6  1  0  0  0  0
  6  7  1  0  0  0  0
  7  8  4  0  0  0  0
  7 25  4  0  0  0  0
  8  9  4  0  0  0  0
  9 10  1  0  0  0  0
  9 14  4  0  0  0  0
 10 11  1  0  0  0  0
 11 12  1  0  0  0  0
 11 13  1  0  0  0  0
 14 15  1  0  0  0  0
 14 24  4  0  0  0  0
 15 16  1  0  0  0  0
 16 17  4  0  0  0  0
 16 21  4  0  0  0  0
 17 18  4  0  0  0  0
 18 19  4  0  0  0  0
 19 20  4  0  0  0  0
 19 23  1  0  0  0  0
 20 21  4  0  0  0  0
 21 22  1  0  0  0  0
 24 25  4  0  0  0  0
M  END
>  <Name_Molregno>
598478

>  <Dopamine transporter>
5.44

>  <Norepinephrine transporter>
6.39

>  <Serotonin transporter>
7.92

$$$$
599921
  Marvin  02231216192D 0   1.00000     0.00000     0

 21 23  0  0  0  0  0  0  0  0999 V2000
    3.5446    2.0785    0.0000 F   0  0  0  0  0  0  0  0  0
    3.5446    1.2535    0.0000 C   0  0  0  0  0  0  0  0  0
    4.2590    0.8410    0.0000 C   0  0  0  0  0  0  0  0  0
    4.2590    0.0160    0.0000 C   0  0  0  0  0  0  0  0  0
    3.5446   -0.3965    0.0000 C   0  0  0  0  0  0  0  0  0
    2.8301    0.0160    0.0000 C   0  0  0  0  0  0  0  0  0
    2.1156   -0.3965    0.0000 O   0  0  0  0  0  0  0  0  0
    2.1156   -1.2215    0.0000 C   0  0  0  0  0  0  0  0  0
    2.8301   -1.6340    0.0000 C   0  0  0  0  0  0  0  0  0
    2.8301   -2.4590    0.0000 C   0  0  0  0  0  0  0  0  0
    2.1156   -2.8715    0.0000 C   0  0  0  0  0  0  0  0  0
    1.4011   -2.4590    0.0000 C   0  0  0  0  0  0  0  0  0
    1.4011   -1.6340    0.0000 C   0  0  0  0  0  0  0  0  0
    0.6867   -1.2215    0.0000 F   0  0  0  0  0  0  0  0  0
    2.8301    0.8410    0.0000 C   0  0  0  0  0  0  0  0  0
    2.1156    1.2535    0.0000 C   0  0  0  0  0  0  0  0  0
    1.4011    0.8410    0.0000 C   0  0  0  0  0  0  0  0  0
    0.6867    1.2535    0.0000 C   0  0  0  0  0  0  0  0  0
    0.6867    2.0785    0.0000 N   0  0  0  0  0  0  0  0  0
    1.4011    2.4910    0.0000 C   0  0  0  0  0  0  0  0  0
    2.1156    2.0785    0.0000 C   0  0  0  0  0  0  0  0  0
  1  2  1  0  0  0  0
  2  3  4  0  0  0  0
  2 15  4  0  0  0  0
  3  4  4  0  0  0  0
  4  5  4  0  0  0  0
  5  6  4  0  0  0  0
  6  7  1  0  0  0  0
  6 15  4  0  0  0  0
  7  8  1  0  0  0  0
  8  9  4  0  0  0  0
  8 13  4  0  0  0  0
  9 10  4  0  0  0  0
 10 11  4  0  0  0  0
 11 12  4  0  0  0  0
 12 13  4  0  0  0  0
 13 14  1  0  0  0  0
 15 16  1  0  0  0  0
 16 17  1  0  0  0  0
 16 21  1  0  0  0  0
 17 18  1  0  0  0  0
 18 19  1  0  0  0  0
 19 20  1  0  0  0  0
 20 21  1  0  0  0  0
M  END
>  <Name_Molregno>
599921

>  <5-HT1A>
8.34

>  <Dopamine transporter>
6.56

>  <Norepinephrine transporter>
7.49

>  <Serotonin transporter>
5.9

$$$$
599922
  Marvin  02231216192D 0   1.00000     0.00000     0

 19 21  0  0  0  0  0  0  0  0999 V2000
   -0.1560    0.1727    0.0000 O   0  0  0  0  0  0  0  0  0
   -0.1560   -0.6523    0.0000 C   0  0  0  0  0  0  0  0  0
    0.5585   -1.0648    0.0000 N   0  0  0  0  0  0  0  0  0
    0.5585   -1.8898    0.0000 C   0  0  0  0  0  0  0  0  0
   -0.1560   -2.3023    0.0000 C   0  0  0  0  0  0  0  0  0
   -0.8704   -1.8898    0.0000 C   0  0  0  0  0  0  0  0  0
   -0.8704   -1.0648    0.0000 C   0  0  0  0  0  0  0  0  0
   -1.5849   -0.6523    0.0000 C   0  0  0  0  0  0  0  0  0
   -2.2994   -1.0648    0.0000 C   0  0  0  0  0  0  0  0  0
   -3.0139   -0.6523    0.0000 C   0  0  0  0  0  0  0  0  0
   -3.0139    0.1727    0.0000 N   0  0  0  0  0  0  0  0  0
   -2.2994    0.5852    0.0000 C   0  0  0  0  0  0  0  0  0
   -1.5849    0.1727    0.0000 C   0  0  0  0  0  0  0  0  0
    0.5585    0.5852    0.0000 C   0  0  0  0  0  0  0  0  0
    0.5585    1.4102    0.0000 C   0  0  0  0  0  0  0  0  0
    1.2730    1.8227    0.0000 C   0  0  0  0  0  0  0  0  0
    1.9874    1.4102    0.0000 C   0  0  0  0  0  0  0  0  0
    1.9874    0.5852    0.0000 C   0  0  0  0  0  0  0  0  0
    1.2730    0.1727    0.0000 C   0  0  0  0  0  0  0  0  0
  1  2  1  0  0  0  0
  1 14  1  0  0  0  0
  2  3  4  0  0  0  0
  2  7  4  0  0  0  0
  3  4  4  0  0  0  0
  4  5  4  0  0  0  0
  5  6  4  0  0  0  0
  6  7  4  0  0  0  0
  7  8  1  0  0  0  0
  8  9  1  0  0  0  0
  8 13  1  0  0  0  0
  9 10  1  0  0  0  0
 10 11  1  0  0  0  0
 11 12  1  0  0  0  0
 12 13  1  0  0  0  0
 14 15  4  0  0  0  0
 14 19  4  0  0  0  0
 15 16  4  0  0  0  0
 16 17  4  0  0  0  0
 17 18  4  0  0  0  0
 18 19  4  0  0  0  0
M  END
>  <Name_Molregno>
599922

>  <5-HT1A>
7

>  <Dopamine transporter>
5.37

>  <Norepinephrine transporter>
5.61

>  <Serotonin transporter>
5.72

$$$$
600000
  Marvin  02231216192D 0   1.00000     0.00000     0

 20 22  0  0  0  0  0  0  0  0999 V2000
    2.9065   -0.7508    0.0000 F   0  0  0  0  0  0  0  0  0
    2.9065   -1.5758    0.0000 C   0  0  0  0  0  0  0  0  0
    3.6209   -1.9883    0.0000 C   0  0  0  0  0  0  0  0  0
    3.6209   -2.8133    0.0000 C   0  0  0  0  0  0  0  0  0
    2.9065   -3.2258    0.0000 C   0  0  0  0  0  0  0  0  0
    2.1920   -2.8133    0.0000 C   0  0  0  0  0  0  0  0  0
    2.1920   -1.9883    0.0000 C   0  0  0  0  0  0  0  0  0
    1.4775   -1.5758    0.0000 O   0  0  0  0  0  0  0  0  0
    0.7631   -1.9883    0.0000 C   0  0  0  0  0  0  0  0  0
    0.7631   -2.8133    0.0000 N   0  0  0  0  0  0  0  0  0
    0.0486   -3.2258    0.0000 C   0  0  0  0  0  0  0  0  0
   -0.6659   -2.8133    0.0000 C   0  0  0  0  0  0  0  0  0
   -0.6659   -1.9883    0.0000 C   0  0  0  0  0  0  0  0  0
    0.0486   -1.5758    0.0000 C   0  0  0  0  0  0  0  0  0
    0.0486   -0.7508    0.0000 C   0  0  0  0  0  0  0  0  0
   -0.6659   -0.3383    0.0000 C   0  0  0  0  0  0  0  0  0
   -0.6659    0.4867    0.0000 C   0  0  0  0  0  0  0  0  0
    0.0486    0.8992    0.0000 N   0  0  0  0  0  0  0  0  0
    0.7631    0.4867    0.0000 C   0  0  0  0  0  0  0  0  0
    0.7631   -0.3383    0.0000 C   0  0  0  0  0  0  0  0  0
  1  2  1  0  0  0  0
  2  3  4  0  0  0  0
  2  7  4  0  0  0  0
  3  4  4  0  0  0  0
  4  5  4  0  0  0  0
  5  6  4  0  0  0  0
  6  7  4  0  0  0  0
  7  8  1  0  0  0  0
  8  9  1  0  0  0  0
  9 10  4  0  0  0  0
  9 14  4  0  0  0  0
 10 11  4  0  0  0  0
 11 12  4  0  0  0  0
 12 13  4  0  0  0  0
 13 14  4  0  0  0  0
 14 15  1  0  0  0  0
 15 16  1  0  0  0  0
 15 20  1  0  0  0  0
 16 17  1  0  0  0  0
 17 18  1  0  0  0  0
 18 19  1  0  0  0  0
 19 20  1  0  0  0  0
M  END
>  <Name_Molregno>
600000

>  <5-HT1A>
7.89

>  <Dopamine transporter>
5.21

>  <Norepinephrine transporter>
6.27

>  <Serotonin transporter>
6.14

$$$$
600001
  Marvin  02231216192D 0   1.00000     0.00000     0

 20 22  0  0  0  0  0  0  0  0999 V2000
    2.9065   -0.7508    0.0000 Cl  0  0  0  0  0  0  0  0  0
    2.9065   -1.5758    0.0000 C   0  0  0  0  0  0  0  0  0
    3.6209   -1.9883    0.0000 C   0  0  0  0  0  0  0  0  0
    3.6209   -2.8133    0.0000 C   0  0  0  0  0  0  0  0  0
    2.9065   -3.2258    0.0000 C   0  0  0  0  0  0  0  0  0
    2.1920   -2.8133    0.0000 C   0  0  0  0  0  0  0  0  0
    2.1920   -1.9883    0.0000 C   0  0  0  0  0  0  0  0  0
    1.4775   -1.5758    0.0000 O   0  0  0  0  0  0  0  0  0
    0.7631   -1.9883    0.0000 C   0  0  0  0  0  0  0  0  0
    0.7631   -2.8133    0.0000 N   0  0  0  0  0  0  0  0  0
    0.0486   -3.2258    0.0000 C   0  0  0  0  0  0  0  0  0
   -0.6659   -2.8133    0.0000 C   0  0  0  0  0  0  0  0  0
   -0.6659   -1.9883    0.0000 C   0  0  0  0  0  0  0  0  0
    0.0486   -1.5758    0.0000 C   0  0  0  0  0  0  0  0  0
    0.0486   -0.7508    0.0000 C   0  0  0  0  0  0  0  0  0
   -0.6659   -0.3383    0.0000 C   0  0  0  0  0  0  0  0  0
   -0.6659    0.4867    0.0000 C   0  0  0  0  0  0  0  0  0
    0.0486    0.8992    0.0000 N   0  0  0  0  0  0  0  0  0
    0.7631    0.4867    0.0000 C   0  0  0  0  0  0  0  0  0
    0.7631   -0.3383    0.0000 C   0  0  0  0  0  0  0  0  0
  1  2  1  0  0  0  0
  2  3  4  0  0  0  0
  2  7  4  0  0  0  0
  3  4  4  0  0  0  0
  4  5  4  0  0  0  0
  5  6  4  0  0  0  0
  6  7  4  0  0  0  0
  7  8  1  0  0  0  0
  8  9  1  0  0  0  0
  9 10  4  0  0  0  0
  9 14  4  0  0  0  0
 10 11  4  0  0  0  0
 11 12  4  0  0  0  0
 12 13  4  0  0  0  0
 13 14  4  0  0  0  0
 14 15  1  0  0  0  0
 15 16  1  0  0  0  0
 15 20  1  0  0  0  0
 16 17  1  0  0  0  0
 17 18  1  0  0  0  0
 18 19  1  0  0  0  0
 19 20  1  0  0  0  0
M  END
>  <Name_Molregno>
600001

>  <5-HT1A>
7.8

>  <Dopamine transporter>
5.29

>  <Norepinephrine transporter>
7.13

>  <Serotonin transporter>
7.24

$$$$
600002
  Marvin  02231216192D 0   1.00000     0.00000     0

 21 23  0  0  0  0  0  0  0  0999 V2000
    0.1253   -0.2872    0.0000 O   0  0  0  0  0  0  0  0  0
    0.1253   -1.1122    0.0000 C   0  0  0  0  0  0  0  0  0
    0.8398   -1.5247    0.0000 C   0  0  0  0  0  0  0  0  0
    0.8398   -2.3497    0.0000 C   0  0  0  0  0  0  0  0  0
    0.1253   -2.7622    0.0000 C   0  0  0  0  0  0  0  0  0
   -0.5891   -2.3497    0.0000 C   0  0  0  0  0  0  0  0  0
   -0.5891   -1.5247    0.0000 C   0  0  0  0  0  0  0  0  0
   -1.3036   -1.1122    0.0000 O   0  0  0  0  0  0  0  0  0
   -2.0181   -1.5247    0.0000 C   0  0  0  0  0  0  0  0  0
   -0.5891    0.1253    0.0000 C   0  0  0  0  0  0  0  0  0
   -1.3036   -0.2872    0.0000 N   0  0  0  0  0  0  0  0  0
   -2.0181    0.1253    0.0000 C   0  0  0  0  0  0  0  0  0
   -2.0181    0.9503    0.0000 C   0  0  0  0  0  0  0  0  0
   -1.3036    1.3628    0.0000 C   0  0  0  0  0  0  0  0  0
   -0.5891    0.9503    0.0000 C   0  0  0  0  0  0  0  0  0
    0.1253    1.3628    0.0000 C   0  0  0  0  0  0  0  0  0
    0.1253    2.1878    0.0000 C   0  0  0  0  0  0  0  0  0
    0.8398    2.6003    0.0000 C   0  0  0  0  0  0  0  0  0
    1.5543    2.1878    0.0000 N   0  0  0  0  0  0  0  0  0
    1.5543    1.3628    0.0000 C   0  0  0  0  0  0  0  0  0
    0.8398    0.9503    0.0000 C   0  0  0  0  0  0  0  0  0
  1  2  1  0  0  0  0
  1 10  1  0  0  0  0
  2  3  4  0  0  0  0
  2  7  4  0  0  0  0
  3  4  4  0  0  0  0
  4  5  4  0  0  0  0
  5  6  4  0  0  0  0
  6  7  4  0  0  0  0
  7  8  1  0  0  0  0
  8  9  1  0  0  0  0
 10 11  4  0  0  0  0
 10 15  4  0  0  0  0
 11 12  4  0  0  0  0
 12 13  4  0  0  0  0
 13 14  4  0  0  0  0
 14 15  4  0  0  0  0
 15 16  1  0  0  0  0
 16 17  1  0  0  0  0
 16 21  1  0  0  0  0
 17 18  1  0  0  0  0
 18 19  1  0  0  0  0
 19 20  1  0  0  0  0
 20 21  1  0  0  0  0
M  END
>  <Name_Molregno>
600002

>  <5-HT1A>
7.04

>  <Dopamine transporter>
5.19

>  <Norepinephrine transporter>
6.53

>  <Serotonin transporter>
6.21

$$$$
600003
  Marvin  02231216192D 0   1.00000     0.00000     0

 20 22  0  0  0  0  0  0  0  0999 V2000
   -0.0352   -0.4701    0.0000 O   0  0  0  0  0  0  0  0  0
   -0.0352   -1.2951    0.0000 C   0  0  0  0  0  0  0  0  0
    0.6793   -1.7076    0.0000 C   0  0  0  0  0  0  0  0  0
    0.6793   -2.5326    0.0000 C   0  0  0  0  0  0  0  0  0
   -0.0352   -2.9451    0.0000 C   0  0  0  0  0  0  0  0  0
   -0.7497   -2.5326    0.0000 C   0  0  0  0  0  0  0  0  0
   -0.7497   -1.7076    0.0000 C   0  0  0  0  0  0  0  0  0
   -1.4642   -1.2951    0.0000 C   0  0  0  0  0  0  0  0  0
   -0.7497   -0.0576    0.0000 C   0  0  0  0  0  0  0  0  0
   -1.4642   -0.4701    0.0000 N   0  0  0  0  0  0  0  0  0
   -2.1786   -0.0576    0.0000 C   0  0  0  0  0  0  0  0  0
   -2.1786    0.7674    0.0000 C   0  0  0  0  0  0  0  0  0
   -1.4642    1.1799    0.0000 C   0  0  0  0  0  0  0  0  0
   -0.7497    0.7674    0.0000 C   0  0  0  0  0  0  0  0  0
   -0.0352    1.1799    0.0000 C   0  0  0  0  0  0  0  0  0
   -0.0352    2.0049    0.0000 C   0  0  0  0  0  0  0  0  0
    0.6793    2.4174    0.0000 C   0  0  0  0  0  0  0  0  0
    1.3937    2.0049    0.0000 N   0  0  0  0  0  0  0  0  0
    1.3937    1.1799    0.0000 C   0  0  0  0  0  0  0  0  0
    0.6793    0.7674    0.0000 C   0  0  0  0  0  0  0  0  0
  1  2  1  0  0  0  0
  1  9  1  0  0  0  0
  2  3  4  0  0  0  0
  2  7  4  0  0  0  0
  3  4  4  0  0  0  0
  4  5  4  0  0  0  0
  5  6  4  0  0  0  0
  6  7  4  0  0  0  0
  7  8  1  0  0  0  0
  9 10  4  0  0  0  0
  9 14  4  0  0  0  0
 10 11  4  0  0  0  0
 11 12  4  0  0  0  0
 12 13  4  0  0  0  0
 13 14  4  0  0  0  0
 14 15  1  0  0  0  0
 15 16  1  0  0  0  0
 15 20  1  0  0  0  0
 16 17  1  0  0  0  0
 17 18  1  0  0  0  0
 18 19  1  0  0  0  0
 19 20  1  0  0  0  0
M  END
>  <Name_Molregno>
600003

>  <5-HT1A>
7.22

>  <Dopamine transporter>
5.21

>  <Norepinephrine transporter>
6.48

>  <Serotonin transporter>
6.53

$$$$
600004
  Marvin  02231216192D 0   1.00000     0.00000     0

 23 25  0  0  0  0  0  0  0  0999 V2000
    0.8420    2.0974    0.0000 F   0  0  0  0  0  0  0  0  0
    0.8420    1.2724    0.0000 C   0  0  0  0  0  0  0  0  0
    0.0170    1.2724    0.0000 F   0  0  0  0  0  0  0  0  0
    1.6670    1.2724    0.0000 F   0  0  0  0  0  0  0  0  0
    0.8420    0.4474    0.0000 C   0  0  0  0  0  0  0  0  0
    1.5565    0.0349    0.0000 C   0  0  0  0  0  0  0  0  0
    1.5565   -0.7901    0.0000 C   0  0  0  0  0  0  0  0  0
    0.8420   -1.2026    0.0000 C   0  0  0  0  0  0  0  0  0
    0.1275   -0.7901    0.0000 C   0  0  0  0  0  0  0  0  0
    0.1275    0.0349    0.0000 C   0  0  0  0  0  0  0  0  0
   -0.5869    0.4474    0.0000 O   0  0  0  0  0  0  0  0  0
   -1.3014    0.0349    0.0000 C   0  0  0  0  0  0  0  0  0
   -1.3014   -0.7901    0.0000 N   0  0  0  0  0  0  0  0  0
   -2.0159   -1.2026    0.0000 C   0  0  0  0  0  0  0  0  0
   -2.7304   -0.7901    0.0000 C   0  0  0  0  0  0  0  0  0
   -2.7304    0.0349    0.0000 C   0  0  0  0  0  0  0  0  0
   -2.0159    0.4474    0.0000 C   0  0  0  0  0  0  0  0  0
   -2.0159    1.2724    0.0000 C   0  0  0  0  0  0  0  0  0
   -2.7304    1.6849    0.0000 C   0  0  0  0  0  0  0  0  0
   -2.7304    2.5099    0.0000 C   0  0  0  0  0  0  0  0  0
   -2.0159    2.9224    0.0000 N   0  0  0  0  0  0  0  0  0
   -1.3014    2.5099    0.0000 C   0  0  0  0  0  0  0  0  0
   -1.3014    1.6849    0.0000 C   0  0  0  0  0  0  0  0  0
  1  2  1  0  0  0  0
  2  3  1  0  0  0  0
  2  4  1  0  0  0  0
  2  5  1  0  0  0  0
  5  6  4  0  0  0  0
  5 10  4  0  0  0  0
  6  7  4  0  0  0  0
  7  8  4  0  0  0  0
  8  9  4  0  0  0  0
  9 10  4  0  0  0  0
 10 11  1  0  0  0  0
 11 12  1  0  0  0  0
 12 13  4  0  0  0  0
 12 17  4  0  0  0  0
 13 14  4  0  0  0  0
 14 15  4  0  0  0  0
 15 16  4  0  0  0  0
 16 17  4  0  0  0  0
 17 18  1  0  0  0  0
 18 19  1  0  0  0  0
 18 23  1  0  0  0  0
 19 20  1  0  0  0  0
 20 21  1  0  0  0  0
 21 22  1  0  0  0  0
 22 23  1  0  0  0  0
M  END
>  <Name_Molregno>
600004

>  <5-HT1A>
7.15

>  <Dopamine transporter>
5.18

>  <Norepinephrine transporter>
6.85

>  <Serotonin transporter>
6.69

$$$$
600005
  Marvin  02231216192D 0   1.00000     0.00000     0

 21 23  0  0  0  0  0  0  0  0999 V2000
   -0.4432   -1.0321    0.0000 Cl  0  0  0  0  0  0  0  0  0
   -0.4432   -1.8571    0.0000 C   0  0  0  0  0  0  0  0  0
    0.2713   -2.2696    0.0000 C   0  0  0  0  0  0  0  0  0
    0.9858   -1.8571    0.0000 O   0  0  0  0  0  0  0  0  0
    0.9858   -1.0321    0.0000 C   0  0  0  0  0  0  0  0  0
    0.2713   -0.6196    0.0000 N   0  0  0  0  0  0  0  0  0
    0.2713    0.2054    0.0000 C   0  0  0  0  0  0  0  0  0
    0.9858    0.6179    0.0000 C   0  0  0  0  0  0  0  0  0
    1.7002    0.2054    0.0000 C   0  0  0  0  0  0  0  0  0
    1.7002   -0.6196    0.0000 C   0  0  0  0  0  0  0  0  0
    2.4147   -1.0321    0.0000 C   0  0  0  0  0  0  0  0  0
    3.1292   -0.6196    0.0000 C   0  0  0  0  0  0  0  0  0
    3.8436   -1.0321    0.0000 C   0  0  0  0  0  0  0  0  0
    3.8436   -1.8571    0.0000 N   0  0  0  0  0  0  0  0  0
    3.1292   -2.2696    0.0000 C   0  0  0  0  0  0  0  0  0
    2.4147   -1.8571    0.0000 C   0  0  0  0  0  0  0  0  0
    0.2713   -3.0946    0.0000 C   0  0  0  0  0  0  0  0  0
   -0.4432   -3.5071    0.0000 C   0  0  0  0  0  0  0  0  0
   -1.1576   -3.0946    0.0000 C   0  0  0  0  0  0  0  0  0
   -1.1576   -2.2696    0.0000 C   0  0  0  0  0  0  0  0  0
   -1.8721   -1.8571    0.0000 Cl  0  0  0  0  0  0  0  0  0
  1  2  1  0  0  0  0
  2  3  4  0  0  0  0
  2 20  4  0  0  0  0
  3  4  1  0  0  0  0
  3 17  4  0  0  0  0
  4  5  1  0  0  0  0
  5  6  4  0  0  0  0
  5 10  4  0  0  0  0
  6  7  4  0  0  0  0
  7  8  4  0  0  0  0
  8  9  4  0  0  0  0
  9 10  4  0  0  0  0
 10 11  1  0  0  0  0
 11 12  1  0  0  0  0
 11 16  1  0  0  0  0
 12 13  1  0  0  0  0
 13 14  1  0  0  0  0
 14 15  1  0  0  0  0
 15 16  1  0  0  0  0
 17 18  4  0  0  0  0
 18 19  4  0  0  0  0
 19 20  4  0  0  0  0
 20 21  1  0  0  0  0
M  END
>  <Name_Molregno>
600005

>  <5-HT1A>
7.43

>  <Dopamine transporter>
6.51

>  <Norepinephrine transporter>
7.6

>  <Serotonin transporter>
8.7

$$$$
600067
  Marvin  02231216192D 0   1.00000     0.00000     0

 21 23  0  0  0  0  0  0  0  0999 V2000
   -0.4432   -1.0321    0.0000 F   0  0  0  0  0  0  0  0  0
   -0.4432   -1.8571    0.0000 C   0  0  0  0  0  0  0  0  0
    0.2713   -2.2696    0.0000 C   0  0  0  0  0  0  0  0  0
    0.9858   -1.8571    0.0000 O   0  0  0  0  0  0  0  0  0
    0.9858   -1.0321    0.0000 C   0  0  0  0  0  0  0  0  0
    0.2713   -0.6196    0.0000 N   0  0  0  0  0  0  0  0  0
    0.2713    0.2054    0.0000 C   0  0  0  0  0  0  0  0  0
    0.9858    0.6179    0.0000 C   0  0  0  0  0  0  0  0  0
    1.7002    0.2054    0.0000 C   0  0  0  0  0  0  0  0  0
    1.7002   -0.6196    0.0000 C   0  0  0  0  0  0  0  0  0
    2.4147   -1.0321    0.0000 C   0  0  0  0  0  0  0  0  0
    3.1292   -0.6196    0.0000 C   0  0  0  0  0  0  0  0  0
    3.8436   -1.0321    0.0000 C   0  0  0  0  0  0  0  0  0
    3.8436   -1.8571    0.0000 N   0  0  0  0  0  0  0  0  0
    3.1292   -2.2696    0.0000 C   0  0  0  0  0  0  0  0  0
    2.4147   -1.8571    0.0000 C   0  0  0  0  0  0  0  0  0
    0.2713   -3.0946    0.0000 C   0  0  0  0  0  0  0  0  0
   -0.4432   -3.5071    0.0000 C   0  0  0  0  0  0  0  0  0
   -1.1576   -3.0946    0.0000 C   0  0  0  0  0  0  0  0  0
   -1.1576   -2.2696    0.0000 C   0  0  0  0  0  0  0  0  0
   -1.8721   -1.8571    0.0000 F   0  0  0  0  0  0  0  0  0
  1  2  1  0  0  0  0
  2  3  4  0  0  0  0
  2 20  4  0  0  0  0
  3  4  1  0  0  0  0
  3 17  4  0  0  0  0
  4  5  1  0  0  0  0
  5  6  4  0  0  0  0
  5 10  4  0  0  0  0
  6  7  4  0  0  0  0
  7  8  4  0  0  0  0
  8  9  4  0  0  0  0
  9 10  4  0  0  0  0
 10 11  1  0  0  0  0
 11 12  1  0  0  0  0
 11 16  1  0  0  0  0
 12 13  1  0  0  0  0
 13 14  1  0  0  0  0
 14 15  1  0  0  0  0
 15 16  1  0  0  0  0
 17 18  4  0  0  0  0
 18 19  4  0  0  0  0
 19 20  4  0  0  0  0
 20 21  1  0  0  0  0
M  END
>  <Name_Molregno>
600067

>  <5-HT1A>
6.76

>  <Dopamine transporter>
5.18

>  <Norepinephrine transporter>
5.74

>  <Serotonin transporter>
6.96

$$$$
600068
  Marvin  02231216192D 0   1.00000     0.00000     0

 21 23  0  0  0  0  0  0  0  0999 V2000
    2.5768   -0.6682    0.0000 F   0  0  0  0  0  0  0  0  0
    2.5768   -1.4932    0.0000 C   0  0  0  0  0  0  0  0  0
    3.2913   -1.9057    0.0000 C   0  0  0  0  0  0  0  0  0
    3.2913   -2.7307    0.0000 C   0  0  0  0  0  0  0  0  0
    2.5768   -3.1432    0.0000 C   0  0  0  0  0  0  0  0  0
    1.8623   -2.7307    0.0000 C   0  0  0  0  0  0  0  0  0
    1.8623   -1.9057    0.0000 C   0  0  0  0  0  0  0  0  0
    1.1479   -1.4932    0.0000 O   0  0  0  0  0  0  0  0  0
    0.4334   -1.9057    0.0000 C   0  0  0  0  0  0  0  0  0
    0.4334   -2.7307    0.0000 N   0  0  0  0  0  0  0  0  0
   -0.2811   -3.1432    0.0000 C   0  0  0  0  0  0  0  0  0
   -0.9956   -2.7307    0.0000 C   0  0  0  0  0  0  0  0  0
   -0.9956   -1.9057    0.0000 C   0  0  0  0  0  0  0  0  0
   -0.2811   -1.4932    0.0000 C   0  0  0  0  0  0  0  0  0
   -0.2811   -0.6682    0.0000 C   0  0  0  0  0  0  0  0  0
   -0.9956   -0.2557    0.0000 C   0  0  0  0  0  0  0  0  0
   -0.9956    0.5693    0.0000 C   0  0  0  0  0  0  0  0  0
   -0.2811    0.9818    0.0000 N   0  0  0  0  0  0  0  0  0
    0.4334    0.5693    0.0000 C   0  0  0  0  0  0  0  0  0
    0.4334   -0.2557    0.0000 C   0  0  0  0  0  0  0  0  0
    4.0057   -3.1432    0.0000 C   0  0  0  0  0  0  0  0  0
  1  2  1  0  0  0  0
  2  3  4  0  0  0  0
  2  7  4  0  0  0  0
  3  4  4  0  0  0  0
  4  5  4  0  0  0  0
  4 21  1  0  0  0  0
  5  6  4  0  0  0  0
  6  7  4  0  0  0  0
  7  8  1  0  0  0  0
  8  9  1  0  0  0  0
  9 10  4  0  0  0  0
  9 14  4  0  0  0  0
 10 11  4  0  0  0  0
 11 12  4  0  0  0  0
 12 13  4  0  0  0  0
 13 14  4  0  0  0  0
 14 15  1  0  0  0  0
 15 16  1  0  0  0  0
 15 20  1  0  0  0  0
 16 17  1  0  0  0  0
 17 18  1  0  0  0  0
 18 19  1  0  0  0  0
 19 20  1  0  0  0  0
M  END
>  <Name_Molregno>
600068

>  <5-HT1A>
8.26

>  <Dopamine transporter>
5.21

>  <Norepinephrine transporter>
6.04

>  <Serotonin transporter>
7.44

$$$$
600069
  Marvin  02231216192D 0   1.00000     0.00000     0

 21 23  0  0  0  0  0  0  0  0999 V2000
    2.5768   -0.6682    0.0000 Cl  0  0  0  0  0  0  0  0  0
    2.5768   -1.4932    0.0000 C   0  0  0  0  0  0  0  0  0
    3.2913   -1.9057    0.0000 C   0  0  0  0  0  0  0  0  0
    3.2913   -2.7307    0.0000 C   0  0  0  0  0  0  0  0  0
    4.0057   -3.1432    0.0000 Cl  0  0  0  0  0  0  0  0  0
    2.5768   -3.1432    0.0000 C   0  0  0  0  0  0  0  0  0
    1.8623   -2.7307    0.0000 C   0  0  0  0  0  0  0  0  0
    1.8623   -1.9057    0.0000 C   0  0  0  0  0  0  0  0  0
    1.1479   -1.4932    0.0000 O   0  0  0  0  0  0  0  0  0
    0.4334   -1.9057    0.0000 C   0  0  0  0  0  0  0  0  0
    0.4334   -2.7307    0.0000 N   0  0  0  0  0  0  0  0  0
   -0.2811   -3.1432    0.0000 C   0  0  0  0  0  0  0  0  0
   -0.9956   -2.7307    0.0000 C   0  0  0  0  0  0  0  0  0
   -0.9956   -1.9057    0.0000 C   0  0  0  0  0  0  0  0  0
   -0.2811   -1.4932    0.0000 C   0  0  0  0  0  0  0  0  0
   -0.2811   -0.6682    0.0000 C   0  0  0  0  0  0  0  0  0
   -0.9956   -0.2557    0.0000 C   0  0  0  0  0  0  0  0  0
   -0.9956    0.5693    0.0000 C   0  0  0  0  0  0  0  0  0
   -0.2811    0.9818    0.0000 N   0  0  0  0  0  0  0  0  0
    0.4334    0.5693    0.0000 C   0  0  0  0  0  0  0  0  0
    0.4334   -0.2557    0.0000 C   0  0  0  0  0  0  0  0  0
  1  2  1  0  0  0  0
  2  3  4  0  0  0  0
  2  8  4  0  0  0  0
  3  4  4  0  0  0  0
  4  5  1  0  0  0  0
  4  6  4  0  0  0  0
  6  7  4  0  0  0  0
  7  8  4  0  0  0  0
  8  9  1  0  0  0  0
  9 10  1  0  0  0  0
 10 11  4  0  0  0  0
 10 15  4  0  0  0  0
 11 12  4  0  0  0  0
 12 13  4  0  0  0  0
 13 14  4  0  0  0  0
 14 15  4  0  0  0  0
 15 16  1  0  0  0  0
 16 17  1  0  0  0  0
 16 21  1  0  0  0  0
 17 18  1  0  0  0  0
 18 19  1  0  0  0  0
 19 20  1  0  0  0  0
 20 21  1  0  0  0  0
M  END
>  <Name_Molregno>
600069

>  <5-HT1A>
7.43

>  <Dopamine transporter>
5.26

>  <Norepinephrine transporter>
6.38

>  <Serotonin transporter>
8.57

$$$$
600070
  Marvin  02231216192D 0   1.00000     0.00000     0

 21 23  0  0  0  0  0  0  0  0999 V2000
    2.5768   -0.6682    0.0000 F   0  0  0  0  0  0  0  0  0
    2.5768   -1.4932    0.0000 C   0  0  0  0  0  0  0  0  0
    3.2913   -1.9057    0.0000 C   0  0  0  0  0  0  0  0  0
    3.2913   -2.7307    0.0000 C   0  0  0  0  0  0  0  0  0
    4.0057   -3.1432    0.0000 F   0  0  0  0  0  0  0  0  0
    2.5768   -3.1432    0.0000 C   0  0  0  0  0  0  0  0  0
    1.8623   -2.7307    0.0000 C   0  0  0  0  0  0  0  0  0
    1.8623   -1.9057    0.0000 C   0  0  0  0  0  0  0  0  0
    1.1479   -1.4932    0.0000 O   0  0  0  0  0  0  0  0  0
    0.4334   -1.9057    0.0000 C   0  0  0  0  0  0  0  0  0
    0.4334   -2.7307    0.0000 N   0  0  0  0  0  0  0  0  0
   -0.2811   -3.1432    0.0000 C   0  0  0  0  0  0  0  0  0
   -0.9956   -2.7307    0.0000 C   0  0  0  0  0  0  0  0  0
   -0.9956   -1.9057    0.0000 C   0  0  0  0  0  0  0  0  0
   -0.2811   -1.4932    0.0000 C   0  0  0  0  0  0  0  0  0
   -0.2811   -0.6682    0.0000 C   0  0  0  0  0  0  0  0  0
   -0.9956   -0.2557    0.0000 C   0  0  0  0  0  0  0  0  0
   -0.9956    0.5693    0.0000 C   0  0  0  0  0  0  0  0  0
   -0.2811    0.9818    0.0000 N   0  0  0  0  0  0  0  0  0
    0.4334    0.5693    0.0000 C   0  0  0  0  0  0  0  0  0
    0.4334   -0.2557    0.0000 C   0  0  0  0  0  0  0  0  0
  1  2  1  0  0  0  0
  2  3  4  0  0  0  0
  2  8  4  0  0  0  0
  3  4  4  0  0  0  0
  4  5  1  0  0  0  0
  4  6  4  0  0  0  0
  6  7  4  0  0  0  0
  7  8  4  0  0  0  0
  8  9  1  0  0  0  0
  9 10  1  0  0  0  0
 10 11  4  0  0  0  0
 10 15  4  0  0  0  0
 11 12  4  0  0  0  0
 12 13  4  0  0  0  0
 13 14  4  0  0  0  0
 14 15  4  0  0  0  0
 15 16  1  0  0  0  0
 16 17  1  0  0  0  0
 16 21  1  0  0  0  0
 17 18  1  0  0  0  0
 18 19  1  0  0  0  0
 19 20  1  0  0  0  0
 20 21  1  0  0  0  0
M  END
>  <Name_Molregno>
600070

>  <5-HT1A>
7.54

>  <Dopamine transporter>
5.59

>  <Norepinephrine transporter>
6.84

>  <Serotonin transporter>
7.52

$$$$
600071
  Marvin  02231216192D 0   1.00000     0.00000     0

 21 23  0  0  0  0  0  0  0  0999 V2000
    2.6883   -0.6918    0.0000 Cl  0  0  0  0  0  0  0  0  0
    2.6883   -1.5168    0.0000 C   0  0  0  0  0  0  0  0  0
    3.4027   -1.9293    0.0000 C   0  0  0  0  0  0  0  0  0
    3.4027   -2.7543    0.0000 C   0  0  0  0  0  0  0  0  0
    2.6883   -3.1668    0.0000 C   0  0  0  0  0  0  0  0  0
    2.6883   -3.9918    0.0000 F   0  0  0  0  0  0  0  0  0
    1.9738   -2.7543    0.0000 C   0  0  0  0  0  0  0  0  0
    1.9738   -1.9293    0.0000 C   0  0  0  0  0  0  0  0  0
    1.2593   -1.5168    0.0000 O   0  0  0  0  0  0  0  0  0
    0.5449   -1.9293    0.0000 C   0  0  0  0  0  0  0  0  0
    0.5449   -2.7543    0.0000 N   0  0  0  0  0  0  0  0  0
   -0.1696   -3.1668    0.0000 C   0  0  0  0  0  0  0  0  0
   -0.8841   -2.7543    0.0000 C   0  0  0  0  0  0  0  0  0
   -0.8841   -1.9293    0.0000 C   0  0  0  0  0  0  0  0  0
   -0.1696   -1.5168    0.0000 C   0  0  0  0  0  0  0  0  0
   -0.1696   -0.6918    0.0000 C   0  0  0  0  0  0  0  0  0
   -0.8841   -0.2793    0.0000 C   0  0  0  0  0  0  0  0  0
   -0.8841    0.5457    0.0000 C   0  0  0  0  0  0  0  0  0
   -0.1696    0.9582    0.0000 N   0  0  0  0  0  0  0  0  0
    0.5449    0.5457    0.0000 C   0  0  0  0  0  0  0  0  0
    0.5449   -0.2793    0.0000 C   0  0  0  0  0  0  0  0  0
  1  2  1  0  0  0  0
  2  3  4  0  0  0  0
  2  8  4  0  0  0  0
  3  4  4  0  0  0  0
  4  5  4  0  0  0  0
  5  6  1  0  0  0  0
  5  7  4  0  0  0  0
  7  8  4  0  0  0  0
  8  9  1  0  0  0  0
  9 10  1  0  0  0  0
 10 11  4  0  0  0  0
 10 15  4  0  0  0  0
 11 12  4  0  0  0  0
 12 13  4  0  0  0  0
 13 14  4  0  0  0  0
 14 15  4  0  0  0  0
 15 16  1  0  0  0  0
 16 17  1  0  0  0  0
 16 21  1  0  0  0  0
 17 18  1  0  0  0  0
 18 19  1  0  0  0  0
 19 20  1  0  0  0  0
 20 21  1  0  0  0  0
M  END
>  <Name_Molregno>
600071

>  <5-HT1A>
7.77

>  <Dopamine transporter>
5.21

>  <Norepinephrine transporter>
6.61

>  <Serotonin transporter>
6.6

$$$$
600072
  Marvin  02231216192D 0   1.00000     0.00000     0

 22 24  0  0  0  0  0  0  0  0999 V2000
    1.5338   -0.6506    0.0000 F   0  0  0  0  0  0  0  0  0
    1.5338   -1.4756    0.0000 C   0  0  0  0  0  0  0  0  0
    2.2482   -1.8881    0.0000 C   0  0  0  0  0  0  0  0  0
    2.2482   -2.7131    0.0000 C   0  0  0  0  0  0  0  0  0
    1.5338   -3.1256    0.0000 C   0  0  0  0  0  0  0  0  0
    0.8193   -2.7131    0.0000 C   0  0  0  0  0  0  0  0  0
    0.1048   -3.1256    0.0000 O   0  0  0  0  0  0  0  0  0
    0.1048   -3.9506    0.0000 C   0  0  0  0  0  0  0  0  0
    0.8193   -1.8881    0.0000 C   0  0  0  0  0  0  0  0  0
    0.1048   -1.4756    0.0000 O   0  0  0  0  0  0  0  0  0
   -0.6096   -1.8881    0.0000 C   0  0  0  0  0  0  0  0  0
   -0.6096   -2.7131    0.0000 N   0  0  0  0  0  0  0  0  0
   -1.3241   -3.1256    0.0000 C   0  0  0  0  0  0  0  0  0
   -2.0386   -2.7131    0.0000 C   0  0  0  0  0  0  0  0  0
   -2.0386   -1.8881    0.0000 C   0  0  0  0  0  0  0  0  0
   -1.3241   -1.4756    0.0000 C   0  0  0  0  0  0  0  0  0
   -1.3241   -0.6506    0.0000 C   0  0  0  0  0  0  0  0  0
   -2.0386   -0.2381    0.0000 C   0  0  0  0  0  0  0  0  0
   -2.0386    0.5869    0.0000 C   0  0  0  0  0  0  0  0  0
   -1.3241    0.9994    0.0000 N   0  0  0  0  0  0  0  0  0
   -0.6096    0.5869    0.0000 C   0  0  0  0  0  0  0  0  0
   -0.6096   -0.2381    0.0000 C   0  0  0  0  0  0  0  0  0
  1  2  1  0  0  0  0
  2  3  4  0  0  0  0
  2  9  4  0  0  0  0
  3  4  4  0  0  0  0
  4  5  4  0  0  0  0
  5  6  4  0  0  0  0
  6  7  1  0  0  0  0
  6  9  4  0  0  0  0
  7  8  1  0  0  0  0
  9 10  1  0  0  0  0
 10 11  1  0  0  0  0
 11 12  4  0  0  0  0
 11 16  4  0  0  0  0
 12 13  4  0  0  0  0
 13 14  4  0  0  0  0
 14 15  4  0  0  0  0
 15 16  4  0  0  0  0
 16 17  1  0  0  0  0
 17 18  1  0  0  0  0
 17 22  1  0  0  0  0
 18 19  1  0  0  0  0
 19 20  1  0  0  0  0
 20 21  1  0  0  0  0
 21 22  1  0  0  0  0
M  END
>  <Name_Molregno>
600072

>  <5-HT1A>
7.62

>  <Dopamine transporter>
5.19

>  <Norepinephrine transporter>
6.56

>  <Serotonin transporter>
6.05

$$$$
600153
  Marvin  02231216192D 0   1.00000     0.00000     0

 21 23  0  0  0  0  0  0  0  0999 V2000
    2.8374   -0.7286    0.0000 Cl  0  0  0  0  0  0  0  0  0
    2.8374   -1.5536    0.0000 C   0  0  0  0  0  0  0  0  0
    3.5519   -1.9661    0.0000 C   0  0  0  0  0  0  0  0  0
    3.5519   -2.7911    0.0000 C   0  0  0  0  0  0  0  0  0
    2.8374   -3.2036    0.0000 C   0  0  0  0  0  0  0  0  0
    2.1229   -2.7911    0.0000 C   0  0  0  0  0  0  0  0  0
    1.4085   -3.2036    0.0000 F   0  0  0  0  0  0  0  0  0
    2.1229   -1.9661    0.0000 C   0  0  0  0  0  0  0  0  0
    1.4085   -1.5536    0.0000 O   0  0  0  0  0  0  0  0  0
    0.6940   -1.9661    0.0000 C   0  0  0  0  0  0  0  0  0
    0.6940   -2.7911    0.0000 N   0  0  0  0  0  0  0  0  0
   -0.0205   -3.2036    0.0000 C   0  0  0  0  0  0  0  0  0
   -0.7349   -2.7911    0.0000 C   0  0  0  0  0  0  0  0  0
   -0.7349   -1.9661    0.0000 C   0  0  0  0  0  0  0  0  0
   -0.0205   -1.5536    0.0000 C   0  0  0  0  0  0  0  0  0
   -0.0205   -0.7286    0.0000 C   0  0  0  0  0  0  0  0  0
   -0.7349   -0.3161    0.0000 C   0  0  0  0  0  0  0  0  0
   -0.7349    0.5089    0.0000 C   0  0  0  0  0  0  0  0  0
   -0.0205    0.9214    0.0000 N   0  0  0  0  0  0  0  0  0
    0.6940    0.5089    0.0000 C   0  0  0  0  0  0  0  0  0
    0.6940   -0.3161    0.0000 C   0  0  0  0  0  0  0  0  0
  1  2  1  0  0  0  0
  2  3  4  0  0  0  0
  2  8  4  0  0  0  0
  3  4  4  0  0  0  0
  4  5  4  0  0  0  0
  5  6  4  0  0  0  0
  6  7  1  0  0  0  0
  6  8  4  0  0  0  0
  8  9  1  0  0  0  0
  9 10  1  0  0  0  0
 10 11  4  0  0  0  0
 10 15  4  0  0  0  0
 11 12  4  0  0  0  0
 12 13  4  0  0  0  0
 13 14  4  0  0  0  0
 14 15  4  0  0  0  0
 15 16  1  0  0  0  0
 16 17  1  0  0  0  0
 16 21  1  0  0  0  0
 17 18  1  0  0  0  0
 18 19  1  0  0  0  0
 19 20  1  0  0  0  0
 20 21  1  0  0  0  0
M  END
>  <Name_Molregno>
600153

>  <5-HT1A>
7.96

>  <Dopamine transporter>
5.21

>  <Norepinephrine transporter>
7.48

>  <Serotonin transporter>
6.71

$$$$
600154
  Marvin  02231216192D 0   1.00000     0.00000     0

 21 23  0  0  0  0  0  0  0  0999 V2000
    2.8374   -0.7286    0.0000 F   0  0  0  0  0  0  0  0  0
    2.8374   -1.5536    0.0000 C   0  0  0  0  0  0  0  0  0
    3.5519   -1.9661    0.0000 C   0  0  0  0  0  0  0  0  0
    3.5519   -2.7911    0.0000 C   0  0  0  0  0  0  0  0  0
    2.8374   -3.2036    0.0000 C   0  0  0  0  0  0  0  0  0
    2.1229   -2.7911    0.0000 C   0  0  0  0  0  0  0  0  0
    1.4085   -3.2036    0.0000 F   0  0  0  0  0  0  0  0  0
    2.1229   -1.9661    0.0000 C   0  0  0  0  0  0  0  0  0
    1.4085   -1.5536    0.0000 O   0  0  0  0  0  0  0  0  0
    0.6940   -1.9661    0.0000 C   0  0  0  0  0  0  0  0  0
    0.6940   -2.7911    0.0000 N   0  0  0  0  0  0  0  0  0
   -0.0205   -3.2036    0.0000 C   0  0  0  0  0  0  0  0  0
   -0.7349   -2.7911    0.0000 C   0  0  0  0  0  0  0  0  0
   -0.7349   -1.9661    0.0000 C   0  0  0  0  0  0  0  0  0
   -0.0205   -1.5536    0.0000 C   0  0  0  0  0  0  0  0  0
   -0.0205   -0.7286    0.0000 C   0  0  0  0  0  0  0  0  0
   -0.7349   -0.3161    0.0000 C   0  0  0  0  0  0  0  0  0
   -0.7349    0.5089    0.0000 C   0  0  0  0  0  0  0  0  0
   -0.0205    0.9214    0.0000 N   0  0  0  0  0  0  0  0  0
    0.6940    0.5089    0.0000 C   0  0  0  0  0  0  0  0  0
    0.6940   -0.3161    0.0000 C   0  0  0  0  0  0  0  0  0
  1  2  1  0  0  0  0
  2  3  4  0  0  0  0
  2  8  4  0  0  0  0
  3  4  4  0  0  0  0
  4  5  4  0  0  0  0
  5  6  4  0  0  0  0
  6  7  1  0  0  0  0
  6  8  4  0  0  0  0
  8  9  1  0  0  0  0
  9 10  1  0  0  0  0
 10 11  4  0  0  0  0
 10 15  4  0  0  0  0
 11 12  4  0  0  0  0
 12 13  4  0  0  0  0
 13 14  4  0  0  0  0
 14 15  4  0  0  0  0
 15 16  1  0  0  0  0
 16 17  1  0  0  0  0
 16 21  1  0  0  0  0
 17 18  1  0  0  0  0
 18 19  1  0  0  0  0
 19 20  1  0  0  0  0
 20 21  1  0  0  0  0
M  END
>  <Name_Molregno>
600154

>  <5-HT1A>
8.14

>  <Dopamine transporter>
5.18

>  <Norepinephrine transporter>
6.74

>  <Serotonin transporter>
5.73

$$$$
600155
  Marvin  02231216192D 0   1.00000     0.00000     0

 21 23  0  0  0  0  0  0  0  0999 V2000
    2.8374   -0.7286    0.0000 F   0  0  0  0  0  0  0  0  0
    2.8374   -1.5536    0.0000 C   0  0  0  0  0  0  0  0  0
    3.5519   -1.9661    0.0000 C   0  0  0  0  0  0  0  0  0
    3.5519   -2.7911    0.0000 C   0  0  0  0  0  0  0  0  0
    2.8374   -3.2036    0.0000 C   0  0  0  0  0  0  0  0  0
    2.1229   -2.7911    0.0000 C   0  0  0  0  0  0  0  0  0
    1.4085   -3.2036    0.0000 C   0  0  0  0  0  0  0  0  0
    2.1229   -1.9661    0.0000 C   0  0  0  0  0  0  0  0  0
    1.4085   -1.5536    0.0000 O   0  0  0  0  0  0  0  0  0
    0.6940   -1.9661    0.0000 C   0  0  0  0  0  0  0  0  0
    0.6940   -2.7911    0.0000 N   0  0  0  0  0  0  0  0  0
   -0.0205   -3.2036    0.0000 C   0  0  0  0  0  0  0  0  0
   -0.7349   -2.7911    0.0000 C   0  0  0  0  0  0  0  0  0
   -0.7349   -1.9661    0.0000 C   0  0  0  0  0  0  0  0  0
   -0.0205   -1.5536    0.0000 C   0  0  0  0  0  0  0  0  0
   -0.0205   -0.7286    0.0000 C   0  0  0  0  0  0  0  0  0
   -0.7349   -0.3161    0.0000 C   0  0  0  0  0  0  0  0  0
   -0.7349    0.5089    0.0000 C   0  0  0  0  0  0  0  0  0
   -0.0205    0.9214    0.0000 N   0  0  0  0  0  0  0  0  0
    0.6940    0.5089    0.0000 C   0  0  0  0  0  0  0  0  0
    0.6940   -0.3161    0.0000 C   0  0  0  0  0  0  0  0  0
  1  2  1  0  0  0  0
  2  3  4  0  0  0  0
  2  8  4  0  0  0  0
  3  4  4  0  0  0  0
  4  5  4  0  0  0  0
  5  6  4  0  0  0  0
  6  7  1  0  0  0  0
  6  8  4  0  0  0  0
  8  9  1  0  0  0  0
  9 10  1  0  0  0  0
 10 11  4  0  0  0  0
 10 15  4  0  0  0  0
 11 12  4  0  0  0  0
 12 13  4  0  0  0  0
 13 14  4  0  0  0  0
 14 15  4  0  0  0  0
 15 16  1  0  0  0  0
 16 17  1  0  0  0  0
 16 21  1  0  0  0  0
 17 18  1  0  0  0  0
 18 19  1  0  0  0  0
 19 20  1  0  0  0  0
 20 21  1  0  0  0  0
M  END
>  <Name_Molregno>
600155

>  <5-HT1A>
8

>  <Dopamine transporter>
5.2

>  <Norepinephrine transporter>
7.57

>  <Serotonin transporter>
6.99

$$$$
600156
  Marvin  02231216192D 0   1.00000     0.00000     0

 20 22  0  0  0  0  0  0  0  0999 V2000
    2.9065   -0.7508    0.0000 Cl  0  0  0  0  0  0  0  0  0
    2.9065   -1.5758    0.0000 C   0  0  0  0  0  0  0  0  0
    3.6209   -1.9883    0.0000 C   0  0  0  0  0  0  0  0  0
    3.6209   -2.8133    0.0000 C   0  0  0  0  0  0  0  0  0
    2.9065   -3.2258    0.0000 C   0  0  0  0  0  0  0  0  0
    2.1920   -2.8133    0.0000 C   0  0  0  0  0  0  0  0  0
    2.1920   -1.9883    0.0000 C   0  0  0  0  0  0  0  0  0
    1.4775   -1.5758    0.0000 O   0  0  0  0  0  0  0  0  0
    0.7631   -1.9883    0.0000 C   0  0  0  0  0  0  0  0  0
    0.7631   -2.8133    0.0000 N   0  0  0  0  0  0  0  0  0
    0.0486   -3.2258    0.0000 C   0  0  0  0  0  0  0  0  0
   -0.6659   -2.8133    0.0000 C   0  0  0  0  0  0  0  0  0
   -0.6659   -1.9883    0.0000 C   0  0  0  0  0  0  0  0  0
    0.0486   -1.5758    0.0000 C   0  0  0  0  0  0  0  0  0
    0.0486   -0.7508    0.0000 N   0  0  0  0  0  0  0  0  0
   -0.6659   -0.3383    0.0000 C   0  0  0  0  0  0  0  0  0
   -0.6659    0.4867    0.0000 C   0  0  0  0  0  0  0  0  0
    0.0486    0.8992    0.0000 N   0  0  0  0  0  0  0  0  0
    0.7631    0.4867    0.0000 C   0  0  0  0  0  0  0  0  0
    0.7631   -0.3383    0.0000 C   0  0  0  0  0  0  0  0  0
  1  2  1  0  0  0  0
  2  3  4  0  0  0  0
  2  7  4  0  0  0  0
  3  4  4  0  0  0  0
  4  5  4  0  0  0  0
  5  6  4  0  0  0  0
  6  7  4  0  0  0  0
  7  8  1  0  0  0  0
  8  9  1  0  0  0  0
  9 10  4  0  0  0  0
  9 14  4  0  0  0  0
 10 11  4  0  0  0  0
 11 12  4  0  0  0  0
 12 13  4  0  0  0  0
 13 14  4  0  0  0  0
 14 15  1  0  0  0  0
 15 16  1  0  0  0  0
 15 20  1  0  0  0  0
 16 17  1  0  0  0  0
 17 18  1  0  0  0  0
 18 19  1  0  0  0  0
 19 20  1  0  0  0  0
M  END
>  <Name_Molregno>
600156

>  <5-HT1A>
8.35

>  <Dopamine transporter>
5.2

>  <Norepinephrine transporter>
6.13

>  <Serotonin transporter>
5.33

$$$$
600157
  Marvin  02231216192D 0   1.00000     0.00000     0

 21 23  0  0  0  0  0  0  0  0999 V2000
    2.8374   -0.7286    0.0000 Cl  0  0  0  0  0  0  0  0  0
    2.8374   -1.5536    0.0000 C   0  0  0  0  0  0  0  0  0
    3.5519   -1.9661    0.0000 C   0  0  0  0  0  0  0  0  0
    3.5519   -2.7911    0.0000 C   0  0  0  0  0  0  0  0  0
    2.8374   -3.2036    0.0000 C   0  0  0  0  0  0  0  0  0
    2.1229   -2.7911    0.0000 C   0  0  0  0  0  0  0  0  0
    1.4085   -3.2036    0.0000 F   0  0  0  0  0  0  0  0  0
    2.1229   -1.9661    0.0000 C   0  0  0  0  0  0  0  0  0
    1.4085   -1.5536    0.0000 O   0  0  0  0  0  0  0  0  0
    0.6940   -1.9661    0.0000 C   0  0  0  0  0  0  0  0  0
    0.6940   -2.7911    0.0000 N   0  0  0  0  0  0  0  0  0
   -0.0205   -3.2036    0.0000 C   0  0  0  0  0  0  0  0  0
   -0.7349   -2.7911    0.0000 C   0  0  0  0  0  0  0  0  0
   -0.7349   -1.9661    0.0000 C   0  0  0  0  0  0  0  0  0
   -0.0205   -1.5536    0.0000 C   0  0  0  0  0  0  0  0  0
   -0.0205   -0.7286    0.0000 N   0  0  0  0  0  0  0  0  0
   -0.7349   -0.3161    0.0000 C   0  0  0  0  0  0  0  0  0
   -0.7349    0.5089    0.0000 C   0  0  0  0  0  0  0  0  0
   -0.0205    0.9214    0.0000 N   0  0  0  0  0  0  0  0  0
    0.6940    0.5089    0.0000 C   0  0  0  0  0  0  0  0  0
    0.6940   -0.3161    0.0000 C   0  0  0  0  0  0  0  0  0
  1  2  1  0  0  0  0
  2  3  4  0  0  0  0
  2  8  4  0  0  0  0
  3  4  4  0  0  0  0
  4  5  4  0  0  0  0
  5  6  4  0  0  0  0
  6  7  1  0  0  0  0
  6  8  4  0  0  0  0
  8  9  1  0  0  0  0
  9 10  1  0  0  0  0
 10 11  4  0  0  0  0
 10 15  4  0  0  0  0
 11 12  4  0  0  0  0
 12 13  4  0  0  0  0
 13 14  4  0  0  0  0
 14 15  4  0  0  0  0
 15 16  1  0  0  0  0
 16 17  1  0  0  0  0
 16 21  1  0  0  0  0
 17 18  1  0  0  0  0
 18 19  1  0  0  0  0
 19 20  1  0  0  0  0
 20 21  1  0  0  0  0
M  END
>  <Name_Molregno>
600157

>  <5-HT1A>
8.43

>  <Dopamine transporter>
5.2

>  <Norepinephrine transporter>
6.18

>  <Serotonin transporter>
5.33

$$$$
617857
  Marvin  02231216192D 0   1.00000     0.00000     0

 22 24  0  0  1  0  0  0  0  0999 V2000
    3.1970    0.0241    0.0000 Cl  0  0  0  0  0  0  0  0  0
    3.1970   -0.8009    0.0000 C   0  0  0  0  0  0  0  0  0
    2.4825   -1.2134    0.0000 C   0  0  0  0  0  0  0  0  0
    2.4825   -2.0384    0.0000 C   0  0  0  0  0  0  0  0  0
    3.1970   -2.4509    0.0000 C   0  0  0  0  0  0  0  0  0
    3.9114   -2.0384    0.0000 C   0  0  0  0  0  0  0  0  0
    3.9114   -1.2134    0.0000 C   0  0  0  0  0  0  0  0  0
    4.6259   -0.8009    0.0000 Cl  0  0  0  0  0  0  0  0  0
    1.7680   -0.8009    0.0000 C   0  0  0  0  0  0  0  0  0
    1.7680    0.0241    0.0000 O   0  0  0  0  0  0  0  0  0
    1.0536   -1.2134    0.0000 N   0  0  0  0  0  0  0  0  0
    1.0536   -2.0384    0.0000 C   0  0  0  0  0  0  0  0  0
    1.7210   -2.5233    0.0000 C   0  0  0  0  0  0  0  0  0
    1.4661   -3.3079    0.0000 C   0  0  0  0  0  0  0  0  0
    0.6411   -3.3079    0.0000 N   0  0  0  0  0  0  0  0  0
    0.3861   -2.5233    0.0000 C   0  0  0  0  0  0  0  0  0
    0.3391   -0.8009    0.0000 C   0  0  0  0  0  0  0  0  0
   -0.3754   -1.2134    0.0000 C   0  0  0  0  0  0  0  0  0
   -1.0899   -0.8009    0.0000 C   0  0  0  0  0  0  0  0  0
   -1.0899    0.0241    0.0000 O   0  0  0  0  0  0  0  0  0
   -0.3754    0.4366    0.0000 C   0  0  0  0  0  0  0  0  0
    0.3391    0.0241    0.0000 C   0  0  0  0  0  0  0  0  0
  1  2  1  0  0  0  0
  2  3  4  0  0  0  0
  2  7  4  0  0  0  0
  3  4  4  0  0  0  0
  3  9  1  0  0  0  0
  4  5  4  0  0  0  0
  5  6  4  0  0  0  0
  6  7  4  0  0  0  0
  7  8  1  0  0  0  0
  9 10  2  0  0  0  0
  9 11  1  0  0  0  0
 11 12  1  0  0  0  0
 11 17  1  0  0  0  0
 12 13  1  0  0  0  0
 12 16  1  0  0  0  0
 13 14  1  0  0  0  0
 14 15  1  0  0  0  0
 15 16  1  0  0  0  0
 17 18  1  0  0  0  0
 17 22  2  0  0  0  0
 18 19  2  0  0  0  0
 19 20  1  0  0  0  0
 20 21  1  0  0  0  0
 21 22  1  0  0  0  0
M  END
>  <Name_Molregno>
617857

>  <Dopamine transporter>
6.02

>  <Norepinephrine transporter>
8

>  <Serotonin transporter>
8.22

$$$$
617858
  Marvin  02231216192D 0   1.00000     0.00000     0

 22 24  0  0  1  0  0  0  0  0999 V2000
    3.1970    0.0241    0.0000 Cl  0  0  0  0  0  0  0  0  0
    3.1970   -0.8009    0.0000 C   0  0  0  0  0  0  0  0  0
    2.4825   -1.2134    0.0000 C   0  0  0  0  0  0  0  0  0
    2.4825   -2.0384    0.0000 C   0  0  0  0  0  0  0  0  0
    3.1970   -2.4509    0.0000 C   0  0  0  0  0  0  0  0  0
    3.9114   -2.0384    0.0000 C   0  0  0  0  0  0  0  0  0
    3.9114   -1.2134    0.0000 C   0  0  0  0  0  0  0  0  0
    4.6259   -0.8009    0.0000 Cl  0  0  0  0  0  0  0  0  0
    1.7680   -0.8009    0.0000 C   0  0  0  0  0  0  0  0  0
    1.7680    0.0241    0.0000 O   0  0  0  0  0  0  0  0  0
    1.0536   -1.2134    0.0000 N   0  0  0  0  0  0  0  0  0
    1.0536   -2.0384    0.0000 C   0  0  0  0  0  0  0  0  0
    1.7210   -2.5233    0.0000 C   0  0  0  0  0  0  0  0  0
    1.4661   -3.3079    0.0000 C   0  0  0  0  0  0  0  0  0
    0.6411   -3.3079    0.0000 N   0  0  0  0  0  0  0  0  0
    0.3861   -2.5233    0.0000 C   0  0  0  0  0  0  0  0  0
    0.3391   -0.8009    0.0000 C   0  0  0  0  0  0  0  0  0
   -0.3754   -1.2134    0.0000 C   0  0  0  0  0  0  0  0  0
   -1.0899   -0.8009    0.0000 C   0  0  0  0  0  0  0  0  0
   -1.0899    0.0241    0.0000 C   0  0  0  0  0  0  0  0  0
   -0.3754    0.4366    0.0000 C   0  0  0  0  0  0  0  0  0
    0.3391    0.0241    0.0000 C   0  0  0  0  0  0  0  0  0
  1  2  1  0  0  0  0
  2  3  4  0  0  0  0
  2  7  4  0  0  0  0
  3  4  4  0  0  0  0
  3  9  1  0  0  0  0
  4  5  4  0  0  0  0
  5  6  4  0  0  0  0
  6  7  4  0  0  0  0
  7  8  1  0  0  0  0
  9 10  2  0  0  0  0
  9 11  1  0  0  0  0
 11 12  1  0  0  0  0
 11 17  1  0  0  0  0
 12 13  1  0  0  0  0
 12 16  1  0  0  0  0
 13 14  1  0  0  0  0
 14 15  1  0  0  0  0
 15 16  1  0  0  0  0
 17 18  4  0  0  0  0
 17 22  4  0  0  0  0
 18 19  4  0  0  0  0
 19 20  4  0  0  0  0
 20 21  4  0  0  0  0
 21 22  4  0  0  0  0
M  END
>  <Name_Molregno>
617858

>  <Dopamine transporter>
6.3

>  <Norepinephrine transporter>
7.96

>  <Serotonin transporter>
8.52

$$$$
617859
  Marvin  02231216192D 0   1.00000     0.00000     0

 20 21  0  0  1  0  0  0  0  0999 V2000
   -3.5481   -0.5578    0.0000 Cl  0  0  0  0  0  0  0  0  0
   -2.8336   -0.1453    0.0000 C   0  0  0  0  0  0  0  0  0
   -2.8336    0.6797    0.0000 C   0  0  0  0  0  0  0  0  0
   -2.1191    1.0922    0.0000 C   0  0  0  0  0  0  0  0  0
   -2.1191    1.9172    0.0000 Cl  0  0  0  0  0  0  0  0  0
   -1.4047    0.6797    0.0000 C   0  0  0  0  0  0  0  0  0
   -1.4047   -0.1453    0.0000 C   0  0  0  0  0  0  0  0  0
   -2.1191   -0.5578    0.0000 C   0  0  0  0  0  0  0  0  0
   -2.1191   -1.3828    0.0000 C   0  0  0  0  0  0  0  0  0
   -2.8336   -1.7953    0.0000 O   0  0  0  0  0  0  0  0  0
   -1.4047   -1.7953    0.0000 N   0  0  0  0  0  0  0  0  0
   -0.6902   -1.3828    0.0000 C   0  0  0  0  0  0  0  0  0
    0.0243   -1.7953    0.0000 C   0  0  0  0  0  0  0  0  0
    0.7388   -1.3828    0.0000 C   0  0  0  0  0  0  0  0  0
    0.0243   -2.6203    0.0000 C   0  0  0  0  0  0  0  0  0
   -1.4047   -2.6203    0.0000 C   0  0  0  0  0  0  0  0  0
   -2.0721   -3.1052    0.0000 C   0  0  0  0  0  0  0  0  0
   -1.8172   -3.8898    0.0000 C   0  0  0  0  0  0  0  0  0
   -0.9922   -3.8898    0.0000 N   0  0  0  0  0  0  0  0  0
   -0.7372   -3.1052    0.0000 C   0  0  0  0  0  0  0  0  0
  1  2  1  0  0  0  0
  2  3  4  0  0  0  0
  2  8  4  0  0  0  0
  3  4  4  0  0  0  0
  4  5  1  0  0  0  0
  4  6  4  0  0  0  0
  6  7  4  0  0  0  0
  7  8  4  0  0  0  0
  8  9  1  0  0  0  0
  9 10  2  0  0  0  0
  9 11  1  0  0  0  0
 11 12  1  0  0  0  0
 11 16  1  0  0  0  0
 12 13  1  0  0  0  0
 13 14  1  0  0  0  0
 13 15  1  0  0  0  0
 16 17  1  0  0  0  0
 16 20  1  0  0  0  0
 17 18  1  0  0  0  0
 18 19  1  0  0  0  0
 19 20  1  0  0  0  0
M  END
>  <Name_Molregno>
617859

>  <Dopamine transporter>
5.62

>  <Norepinephrine transporter>
7.43

>  <Serotonin transporter>
8.52

$$$$
617860
  Marvin  02231216192D 0   1.00000     0.00000     0

 20 21  0  0  1  0  0  0  0  0999 V2000
   -2.7854   -1.2114    0.0000 Cl  0  0  0  0  0  0  0  0  0
   -2.0710   -0.7989    0.0000 C   0  0  0  0  0  0  0  0  0
   -2.0710    0.0261    0.0000 C   0  0  0  0  0  0  0  0  0
   -1.3565    0.4386    0.0000 C   0  0  0  0  0  0  0  0  0
   -0.6420    0.0261    0.0000 C   0  0  0  0  0  0  0  0  0
    0.0724    0.4386    0.0000 Cl  0  0  0  0  0  0  0  0  0
   -0.6420   -0.7989    0.0000 C   0  0  0  0  0  0  0  0  0
   -1.3565   -1.2114    0.0000 C   0  0  0  0  0  0  0  0  0
   -1.3565   -2.0364    0.0000 C   0  0  0  0  0  0  0  0  0
   -2.0710   -2.4489    0.0000 O   0  0  0  0  0  0  0  0  0
   -0.6420   -2.4489    0.0000 N   0  0  0  0  0  0  0  0  0
    0.0724   -2.0364    0.0000 C   0  0  0  0  0  0  0  0  0
    0.7869   -2.4489    0.0000 C   0  0  0  0  0  0  0  0  0
    1.5014   -2.0364    0.0000 C   0  0  0  0  0  0  0  0  0
    0.7869   -3.2739    0.0000 C   0  0  0  0  0  0  0  0  0
   -0.6420   -3.2739    0.0000 C   0  0  0  0  0  0  0  0  0
   -1.3095   -3.7588    0.0000 C   0  0  0  0  0  0  0  0  0
   -1.0545   -4.5434    0.0000 C   0  0  0  0  0  0  0  0  0
   -0.2295   -4.5434    0.0000 N   0  0  0  0  0  0  0  0  0
    0.0254   -3.7588    0.0000 C   0  0  0  0  0  0  0  0  0
  1  2  1  0  0  0  0
  2  3  4  0  0  0  0
  2  8  4  0  0  0  0
  3  4  4  0  0  0  0
  4  5  4  0  0  0  0
  5  6  1  0  0  0  0
  5  7  4  0  0  0  0
  7  8  4  0  0  0  0
  8  9  1  0  0  0  0
  9 10  2  0  0  0  0
  9 11  1  0  0  0  0
 11 12  1  0  0  0  0
 11 16  1  0  0  0  0
 12 13  1  0  0  0  0
 13 14  1  0  0  0  0
 13 15  1  0  0  0  0
 16 17  1  0  0  0  0
 16 20  1  0  0  0  0
 17 18  1  0  0  0  0
 18 19  1  0  0  0  0
 19 20  1  0  0  0  0
M  END
>  <Name_Molregno>
617860

>  <Dopamine transporter>
5.61

>  <Norepinephrine transporter>
6.7

>  <Serotonin transporter>
7.27

$$$$
617861
  Marvin  02231216192D 0   1.00000     0.00000     0

 20 21  0  0  1  0  0  0  0  0999 V2000
   -1.2744   -0.9076    0.0000 Cl  0  0  0  0  0  0  0  0  0
   -0.5599   -1.3201    0.0000 C   0  0  0  0  0  0  0  0  0
    0.1545   -0.9076    0.0000 C   0  0  0  0  0  0  0  0  0
    0.8690   -1.3201    0.0000 C   0  0  0  0  0  0  0  0  0
    0.8690   -2.1451    0.0000 C   0  0  0  0  0  0  0  0  0
    0.1545   -2.5576    0.0000 C   0  0  0  0  0  0  0  0  0
    0.1545   -3.3826    0.0000 Cl  0  0  0  0  0  0  0  0  0
   -0.5599   -2.1451    0.0000 C   0  0  0  0  0  0  0  0  0
    1.5835   -0.9076    0.0000 C   0  0  0  0  0  0  0  0  0
    1.5835   -0.0826    0.0000 O   0  0  0  0  0  0  0  0  0
    2.2979   -1.3201    0.0000 N   0  0  0  0  0  0  0  0  0
    3.0124   -0.9076    0.0000 C   0  0  0  0  0  0  0  0  0
    3.7269   -1.3201    0.0000 C   0  0  0  0  0  0  0  0  0
    4.4413   -0.9076    0.0000 C   0  0  0  0  0  0  0  0  0
    3.7269   -2.1451    0.0000 C   0  0  0  0  0  0  0  0  0
    2.2979   -2.1451    0.0000 C   0  0  0  0  0  0  0  0  0
    2.9654   -2.6300    0.0000 C   0  0  0  0  0  0  0  0  0
    2.7104   -3.4147    0.0000 C   0  0  0  0  0  0  0  0  0
    1.8854   -3.4147    0.0000 N   0  0  0  0  0  0  0  0  0
    1.6305   -2.6300    0.0000 C   0  0  0  0  0  0  0  0  0
  1  2  1  0  0  0  0
  2  3  4  0  0  0  0
  2  8  4  0  0  0  0
  3  4  4  0  0  0  0
  4  5  4  0  0  0  0
  4  9  1  0  0  0  0
  5  6  4  0  0  0  0
  6  7  1  0  0  0  0
  6  8  4  0  0  0  0
  9 10  2  0  0  0  0
  9 11  1  0  0  0  0
 11 12  1  0  0  0  0
 11 16  1  0  0  0  0
 12 13  1  0  0  0  0
 13 14  1  0  0  0  0
 13 15  1  0  0  0  0
 16 17  1  0  0  0  0
 16 20  1  0  0  0  0
 17 18  1  0  0  0  0
 18 19  1  0  0  0  0
 19 20  1  0  0  0  0
M  END
>  <Name_Molregno>
617861

>  <Dopamine transporter>
5.51

>  <Norepinephrine transporter>
7.37

>  <Serotonin transporter>
8.22

$$$$
617862
  Marvin  02231216192D 0   1.00000     0.00000     0

 20 21  0  0  1  0  0  0  0  0999 V2000
    0.1141    1.3942    0.0000 Cl  0  0  0  0  0  0  0  0  0
    0.8285    0.9817    0.0000 C   0  0  0  0  0  0  0  0  0
    1.5430    1.3942    0.0000 C   0  0  0  0  0  0  0  0  0
    2.2575    0.9817    0.0000 C   0  0  0  0  0  0  0  0  0
    2.2575    0.1567    0.0000 C   0  0  0  0  0  0  0  0  0
    1.5430   -0.2558    0.0000 C   0  0  0  0  0  0  0  0  0
    0.8285    0.1567    0.0000 C   0  0  0  0  0  0  0  0  0
    0.1141   -0.2558    0.0000 Cl  0  0  0  0  0  0  0  0  0
    2.9719    1.3942    0.0000 C   0  0  0  0  0  0  0  0  0
    2.9719    2.2192    0.0000 O   0  0  0  0  0  0  0  0  0
    3.6864    0.9817    0.0000 N   0  0  0  0  0  0  0  0  0
    4.4009    1.3942    0.0000 C   0  0  0  0  0  0  0  0  0
    5.1154    0.9817    0.0000 C   0  0  0  0  0  0  0  0  0
    5.8298    1.3942    0.0000 C   0  0  0  0  0  0  0  0  0
    5.1154    0.1567    0.0000 C   0  0  0  0  0  0  0  0  0
    3.6864    0.1567    0.0000 C   0  0  0  0  0  0  0  0  0
    4.3538   -0.3283    0.0000 C   0  0  0  0  0  0  0  0  0
    4.0989   -1.1129    0.0000 C   0  0  0  0  0  0  0  0  0
    3.2739   -1.1129    0.0000 N   0  0  0  0  0  0  0  0  0
    3.0190   -0.3283    0.0000 C   0  0  0  0  0  0  0  0  0
  1  2  1  0  0  0  0
  2  3  4  0  0  0  0
  2  7  4  0  0  0  0
  3  4  4  0  0  0  0
  4  5  4  0  0  0  0
  4  9  1  0  0  0  0
  5  6  4  0  0  0  0
  6  7  4  0  0  0  0
  7  8  1  0  0  0  0
  9 10  2  0  0  0  0
  9 11  1  0  0  0  0
 11 12  1  0  0  0  0
 11 16  1  0  0  0  0
 12 13  1  0  0  0  0
 13 14  1  0  0  0  0
 13 15  1  0  0  0  0
 16 17  1  0  0  0  0
 16 20  1  0  0  0  0
 17 18  1  0  0  0  0
 18 19  1  0  0  0  0
 19 20  1  0  0  0  0
M  END
>  <Name_Molregno>
617862

>  <Dopamine transporter>
6.37

>  <Norepinephrine transporter>
7.3

>  <Serotonin transporter>
8.4

$$$$
617863
  Marvin  02231216192D 0   1.00000     0.00000     0

 19 20  0  0  1  0  0  0  0  0999 V2000
    0.1129    1.3373    0.0000 Cl  0  0  0  0  0  0  0  0  0
    0.8274    0.9248    0.0000 C   0  0  0  0  0  0  0  0  0
    1.5419    1.3373    0.0000 C   0  0  0  0  0  0  0  0  0
    2.2563    0.9248    0.0000 C   0  0  0  0  0  0  0  0  0
    2.2563    0.0998    0.0000 C   0  0  0  0  0  0  0  0  0
    1.5419   -0.3127    0.0000 C   0  0  0  0  0  0  0  0  0
    0.8274    0.0998    0.0000 C   0  0  0  0  0  0  0  0  0
    2.9708    1.3373    0.0000 C   0  0  0  0  0  0  0  0  0
    2.9708    2.1623    0.0000 O   0  0  0  0  0  0  0  0  0
    3.6853    0.9248    0.0000 N   0  0  0  0  0  0  0  0  0
    4.3997    1.3373    0.0000 C   0  0  0  0  0  0  0  0  0
    5.1142    0.9248    0.0000 C   0  0  0  0  0  0  0  0  0
    5.8287    1.3373    0.0000 C   0  0  0  0  0  0  0  0  0
    5.1142    0.0998    0.0000 C   0  0  0  0  0  0  0  0  0
    3.6853    0.0998    0.0000 C   0  0  0  0  0  0  0  0  0
    4.3527   -0.3851    0.0000 C   0  0  0  0  0  0  0  0  0
    4.0978   -1.1697    0.0000 C   0  0  0  0  0  0  0  0  0
    3.2728   -1.1697    0.0000 N   0  0  0  0  0  0  0  0  0
    3.0178   -0.3851    0.0000 C   0  0  0  0  0  0  0  0  0
  1  2  1  0  0  0  0
  2  3  4  0  0  0  0
  2  7  4  0  0  0  0
  3  4  4  0  0  0  0
  4  5  4  0  0  0  0
  4  8  1  0  0  0  0
  5  6  4  0  0  0  0
  6  7  4  0  0  0  0
  8  9  2  0  0  0  0
  8 10  1  0  0  0  0
 10 11  1  0  0  0  0
 10 15  1  0  0  0  0
 11 12  1  0  0  0  0
 12 13  1  0  0  0  0
 12 14  1  0  0  0  0
 15 16  1  0  0  0  0
 15 19  1  0  0  0  0
 16 17  1  0  0  0  0
 17 18  1  0  0  0  0
 18 19  1  0  0  0  0
M  END
>  <Name_Molregno>
617863

>  <Dopamine transporter>
5.88

>  <Norepinephrine transporter>
6.87

>  <Serotonin transporter>
7.72

$$$$
617934
  Marvin  02231216192D 0   1.00000     0.00000     0

 23 24  0  0  1  0  0  0  0  0999 V2000
    0.5496    1.0390    0.0000 Cl  0  0  0  0  0  0  0  0  0
    0.5496    0.2140    0.0000 C   0  0  0  0  0  0  0  0  0
    1.2641   -0.1985    0.0000 C   0  0  0  0  0  0  0  0  0
    1.2641   -1.0235    0.0000 C   0  0  0  0  0  0  0  0  0
    0.5496   -1.4360    0.0000 C   0  0  0  0  0  0  0  0  0
   -0.1648   -1.0235    0.0000 C   0  0  0  0  0  0  0  0  0
   -0.1648   -0.1985    0.0000 C   0  0  0  0  0  0  0  0  0
   -0.8793    0.2140    0.0000 C   0  0  0  0  0  0  0  0  0
   -1.5938    0.6265    0.0000 F   0  0  0  0  0  0  0  0  0
   -1.2918   -0.5005    0.0000 F   0  0  0  0  0  0  0  0  0
   -0.4668    0.9284    0.0000 F   0  0  0  0  0  0  0  0  0
    1.9786    0.2140    0.0000 C   0  0  0  0  0  0  0  0  0
    1.9786    1.0390    0.0000 O   0  0  0  0  0  0  0  0  0
    2.6930   -0.1985    0.0000 N   0  0  0  0  0  0  0  0  0
    3.4075    0.2140    0.0000 C   0  0  0  0  0  0  0  0  0
    4.1220   -0.1985    0.0000 C   0  0  0  0  0  0  0  0  0
    4.8365    0.2140    0.0000 C   0  0  0  0  0  0  0  0  0
    4.1220   -1.0235    0.0000 C   0  0  0  0  0  0  0  0  0
    2.6930   -1.0235    0.0000 C   0  0  0  0  0  0  0  0  0
    3.3605   -1.5085    0.0000 C   0  0  0  0  0  0  0  0  0
    3.1055   -2.2931    0.0000 C   0  0  0  0  0  0  0  0  0
    2.2805   -2.2931    0.0000 N   0  0  0  0  0  0  0  0  0
    2.0256   -1.5085    0.0000 C   0  0  0  0  0  0  0  0  0
  1  2  1  0  0  0  0
  2  3  4  0  0  0  0
  2  7  4  0  0  0  0
  3  4  4  0  0  0  0
  3 12  1  0  0  0  0
  4  5  4  0  0  0  0
  5  6  4  0  0  0  0
  6  7  4  0  0  0  0
  7  8  1  0  0  0  0
  8  9  1  0  0  0  0
  8 10  1  0  0  0  0
  8 11  1  0  0  0  0
 12 13  2  0  0  0  0
 12 14  1  0  0  0  0
 14 15  1  0  0  0  0
 14 19  1  0  0  0  0
 15 16  1  0  0  0  0
 16 17  1  0  0  0  0
 16 18  1  0  0  0  0
 19 20  1  0  0  0  0
 19 23  1  0  0  0  0
 20 21  1  0  0  0  0
 21 22  1  0  0  0  0
 22 23  1  0  0  0  0
M  END
>  <Name_Molregno>
617934

>  <Dopamine transporter>
5.68

>  <Norepinephrine transporter>
6.99

>  <Serotonin transporter>
7.96

$$$$
617935
  Marvin  02231216192D 0   1.00000     0.00000     0

 20 21  0  0  1  0  0  0  0  0999 V2000
    1.0728    2.8426    0.0000 Cl  0  0  0  0  0  0  0  0  0
    1.7872    2.4301    0.0000 C   0  0  0  0  0  0  0  0  0
    2.5017    2.8426    0.0000 C   0  0  0  0  0  0  0  0  0
    3.2162    2.4301    0.0000 C   0  0  0  0  0  0  0  0  0
    3.2162    1.6051    0.0000 C   0  0  0  0  0  0  0  0  0
    2.5017    1.1926    0.0000 C   0  0  0  0  0  0  0  0  0
    2.5017    0.3676    0.0000 C   0  0  0  0  0  0  0  0  0
    1.7872   -0.0449    0.0000 O   0  0  0  0  0  0  0  0  0
    3.2162   -0.0449    0.0000 N   0  0  0  0  0  0  0  0  0
    3.9307    0.3676    0.0000 C   0  0  0  0  0  0  0  0  0
    4.6451   -0.0449    0.0000 C   0  0  0  0  0  0  0  0  0
    5.3596    0.3676    0.0000 C   0  0  0  0  0  0  0  0  0
    4.6451   -0.8699    0.0000 C   0  0  0  0  0  0  0  0  0
    3.2162   -0.8699    0.0000 C   0  0  0  0  0  0  0  0  0
    2.5487   -1.3548    0.0000 C   0  0  0  0  0  0  0  0  0
    2.8037   -2.1394    0.0000 C   0  0  0  0  0  0  0  0  0
    3.6287   -2.1394    0.0000 N   0  0  0  0  0  0  0  0  0
    3.8836   -1.3548    0.0000 C   0  0  0  0  0  0  0  0  0
    1.7872    1.6051    0.0000 C   0  0  0  0  0  0  0  0  0
    1.0728    1.1926    0.0000 C   0  0  0  0  0  0  0  0  0
  1  2  1  0  0  0  0
  2  3  4  0  0  0  0
  2 19  4  0  0  0  0
  3  4  4  0  0  0  0
  4  5  4  0  0  0  0
  5  6  4  0  0  0  0
  6  7  1  0  0  0  0
  6 19  4  0  0  0  0
  7  8  2  0  0  0  0
  7  9  1  0  0  0  0
  9 10  1  0  0  0  0
  9 14  1  0  0  0  0
 10 11  1  0  0  0  0
 11 12  1  0  0  0  0
 11 13  1  0  0  0  0
 14 15  1  0  0  0  0
 14 18  1  0  0  0  0
 15 16  1  0  0  0  0
 16 17  1  0  0  0  0
 17 18  1  0  0  0  0
 19 20  1  0  0  0  0
M  END
>  <Name_Molregno>
617935

>  <Dopamine transporter>
6.29

>  <Norepinephrine transporter>
7.54

>  <Serotonin transporter>
8.52

$$$$
617936
  Marvin  02231216192D 0   1.00000     0.00000     0

 20 21  0  0  1  0  0  0  0  0999 V2000
    1.0728    2.8426    0.0000 F   0  0  0  0  0  0  0  0  0
    1.7872    2.4301    0.0000 C   0  0  0  0  0  0  0  0  0
    2.5017    2.8426    0.0000 C   0  0  0  0  0  0  0  0  0
    3.2162    2.4301    0.0000 C   0  0  0  0  0  0  0  0  0
    3.2162    1.6051    0.0000 C   0  0  0  0  0  0  0  0  0
    2.5017    1.1926    0.0000 C   0  0  0  0  0  0  0  0  0
    2.5017    0.3676    0.0000 C   0  0  0  0  0  0  0  0  0
    1.7872   -0.0449    0.0000 O   0  0  0  0  0  0  0  0  0
    3.2162   -0.0449    0.0000 N   0  0  0  0  0  0  0  0  0
    3.9307    0.3676    0.0000 C   0  0  0  0  0  0  0  0  0
    4.6451   -0.0449    0.0000 C   0  0  0  0  0  0  0  0  0
    5.3596    0.3676    0.0000 C   0  0  0  0  0  0  0  0  0
    4.6451   -0.8699    0.0000 C   0  0  0  0  0  0  0  0  0
    3.2162   -0.8699    0.0000 C   0  0  0  0  0  0  0  0  0
    2.5487   -1.3548    0.0000 C   0  0  0  0  0  0  0  0  0
    2.8037   -2.1394    0.0000 C   0  0  0  0  0  0  0  0  0
    3.6287   -2.1394    0.0000 N   0  0  0  0  0  0  0  0  0
    3.8836   -1.3548    0.0000 C   0  0  0  0  0  0  0  0  0
    1.7872    1.6051    0.0000 C   0  0  0  0  0  0  0  0  0
    1.0728    1.1926    0.0000 C   0  0  0  0  0  0  0  0  0
  1  2  1  0  0  0  0
  2  3  4  0  0  0  0
  2 19  4  0  0  0  0
  3  4  4  0  0  0  0
  4  5  4  0  0  0  0
  5  6  4  0  0  0  0
  6  7  1  0  0  0  0
  6 19  4  0  0  0  0
  7  8  2  0  0  0  0
  7  9  1  0  0  0  0
  9 10  1  0  0  0  0
  9 14  1  0  0  0  0
 10 11  1  0  0  0  0
 11 12  1  0  0  0  0
 11 13  1  0  0  0  0
 14 15  1  0  0  0  0
 14 18  1  0  0  0  0
 15 16  1  0  0  0  0
 16 17  1  0  0  0  0
 17 18  1  0  0  0  0
 19 20  1  0  0  0  0
M  END
>  <Name_Molregno>
617936

>  <Dopamine transporter>
5.79

>  <Norepinephrine transporter>
7.16

>  <Serotonin transporter>
7.89

$$$$
617937
  Marvin  02231216192D 0   1.00000     0.00000     0

 20 21  0  0  1  0  0  0  0  0999 V2000
   -0.6769   -0.2668    0.0000 Cl  0  0  0  0  0  0  0  0  0
   -0.6769   -1.0918    0.0000 C   0  0  0  0  0  0  0  0  0
    0.0376   -1.5043    0.0000 C   0  0  0  0  0  0  0  0  0
    0.0376   -2.3293    0.0000 C   0  0  0  0  0  0  0  0  0
   -0.6769   -2.7418    0.0000 C   0  0  0  0  0  0  0  0  0
   -1.3913   -2.3293    0.0000 C   0  0  0  0  0  0  0  0  0
   -1.3913   -1.5043    0.0000 C   0  0  0  0  0  0  0  0  0
   -2.1058   -1.0918    0.0000 F   0  0  0  0  0  0  0  0  0
    0.7521   -1.0918    0.0000 C   0  0  0  0  0  0  0  0  0
    0.7521   -0.2668    0.0000 O   0  0  0  0  0  0  0  0  0
    1.4666   -1.5043    0.0000 N   0  0  0  0  0  0  0  0  0
    2.1810   -1.0918    0.0000 C   0  0  0  0  0  0  0  0  0
    2.8955   -1.5043    0.0000 C   0  0  0  0  0  0  0  0  0
    3.6100   -1.0918    0.0000 C   0  0  0  0  0  0  0  0  0
    2.8955   -2.3293    0.0000 C   0  0  0  0  0  0  0  0  0
    1.4666   -2.3293    0.0000 C   0  0  0  0  0  0  0  0  0
    2.1340   -2.8142    0.0000 C   0  0  0  0  0  0  0  0  0
    1.8791   -3.5988    0.0000 C   0  0  0  0  0  0  0  0  0
    1.0541   -3.5988    0.0000 N   0  0  0  0  0  0  0  0  0
    0.7991   -2.8142    0.0000 C   0  0  0  0  0  0  0  0  0
  1  2  1  0  0  0  0
  2  3  4  0  0  0  0
  2  7  4  0  0  0  0
  3  4  4  0  0  0  0
  3  9  1  0  0  0  0
  4  5  4  0  0  0  0
  5  6  4  0  0  0  0
  6  7  4  0  0  0  0
  7  8  1  0  0  0  0
  9 10  2  0  0  0  0
  9 11  1  0  0  0  0
 11 12  1  0  0  0  0
 11 16  1  0  0  0  0
 12 13  1  0  0  0  0
 13 14  1  0  0  0  0
 13 15  1  0  0  0  0
 16 17  1  0  0  0  0
 16 20  1  0  0  0  0
 17 18  1  0  0  0  0
 18 19  1  0  0  0  0
 19 20  1  0  0  0  0
M  END
>  <Name_Molregno>
617937

>  <Dopamine transporter>
5.63

>  <Norepinephrine transporter>
7.17

>  <Serotonin transporter>
7.82

$$$$
617938
  Marvin  02231216192D 0   1.00000     0.00000     0

 20 21  0  0  1  0  0  0  0  0999 V2000
    1.0728    2.8426    0.0000 Cl  0  0  0  0  0  0  0  0  0
    1.7872    2.4301    0.0000 C   0  0  0  0  0  0  0  0  0
    2.5017    2.8426    0.0000 C   0  0  0  0  0  0  0  0  0
    3.2162    2.4301    0.0000 C   0  0  0  0  0  0  0  0  0
    3.2162    1.6051    0.0000 C   0  0  0  0  0  0  0  0  0
    2.5017    1.1926    0.0000 C   0  0  0  0  0  0  0  0  0
    2.5017    0.3676    0.0000 C   0  0  0  0  0  0  0  0  0
    1.7872   -0.0449    0.0000 O   0  0  0  0  0  0  0  0  0
    3.2162   -0.0449    0.0000 N   0  0  0  0  0  0  0  0  0
    3.9307    0.3676    0.0000 C   0  0  0  0  0  0  0  0  0
    4.6451   -0.0449    0.0000 C   0  0  0  0  0  0  0  0  0
    5.3596    0.3676    0.0000 C   0  0  0  0  0  0  0  0  0
    4.6451   -0.8699    0.0000 C   0  0  0  0  0  0  0  0  0
    3.2162   -0.8699    0.0000 C   0  0  0  0  0  0  0  0  0
    2.5487   -1.3548    0.0000 C   0  0  0  0  0  0  0  0  0
    2.8037   -2.1394    0.0000 C   0  0  0  0  0  0  0  0  0
    3.6287   -2.1394    0.0000 N   0  0  0  0  0  0  0  0  0
    3.8836   -1.3548    0.0000 C   0  0  0  0  0  0  0  0  0
    1.7872    1.6051    0.0000 C   0  0  0  0  0  0  0  0  0
    1.0728    1.1926    0.0000 F   0  0  0  0  0  0  0  0  0
  1  2  1  0  0  0  0
  2  3  4  0  0  0  0
  2 19  4  0  0  0  0
  3  4  4  0  0  0  0
  4  5  4  0  0  0  0
  5  6  4  0  0  0  0
  6  7  1  0  0  0  0
  6 19  4  0  0  0  0
  7  8  2  0  0  0  0
  7  9  1  0  0  0  0
  9 10  1  0  0  0  0
  9 14  1  0  0  0  0
 10 11  1  0  0  0  0
 11 12  1  0  0  0  0
 11 13  1  0  0  0  0
 14 15  1  0  0  0  0
 14 18  1  0  0  0  0
 15 16  1  0  0  0  0
 16 17  1  0  0  0  0
 17 18  1  0  0  0  0
 19 20  1  0  0  0  0
M  END
>  <Name_Molregno>
617938

>  <Dopamine transporter>
5.59

>  <Norepinephrine transporter>
6.86

>  <Serotonin transporter>
8

$$$$
617939
  Marvin  02231216192D 0   1.00000     0.00000     0

 23 24  0  0  1  0  0  0  0  0999 V2000
    1.1467    2.5507    0.0000 F   0  0  0  0  0  0  0  0  0
    1.8611    2.1382    0.0000 C   0  0  0  0  0  0  0  0  0
    2.5756    2.5507    0.0000 C   0  0  0  0  0  0  0  0  0
    3.2901    2.1382    0.0000 C   0  0  0  0  0  0  0  0  0
    3.2901    1.3132    0.0000 C   0  0  0  0  0  0  0  0  0
    2.5756    0.9007    0.0000 C   0  0  0  0  0  0  0  0  0
    2.5756    0.0757    0.0000 C   0  0  0  0  0  0  0  0  0
    1.8611   -0.3368    0.0000 O   0  0  0  0  0  0  0  0  0
    3.2901   -0.3368    0.0000 N   0  0  0  0  0  0  0  0  0
    4.0045    0.0757    0.0000 C   0  0  0  0  0  0  0  0  0
    4.7190   -0.3368    0.0000 C   0  0  0  0  0  0  0  0  0
    5.4335    0.0757    0.0000 C   0  0  0  0  0  0  0  0  0
    4.7190   -1.1618    0.0000 C   0  0  0  0  0  0  0  0  0
    3.2901   -1.1618    0.0000 C   0  0  0  0  0  0  0  0  0
    2.6226   -1.6467    0.0000 C   0  0  0  0  0  0  0  0  0
    2.8776   -2.4313    0.0000 C   0  0  0  0  0  0  0  0  0
    3.7026   -2.4313    0.0000 N   0  0  0  0  0  0  0  0  0
    3.9575   -1.6467    0.0000 C   0  0  0  0  0  0  0  0  0
    1.8611    1.3132    0.0000 C   0  0  0  0  0  0  0  0  0
    1.1467    0.9007    0.0000 C   0  0  0  0  0  0  0  0  0
    0.4322    0.4882    0.0000 F   0  0  0  0  0  0  0  0  0
    1.5592    0.1863    0.0000 F   0  0  0  0  0  0  0  0  0
    0.7342    1.6152    0.0000 F   0  0  0  0  0  0  0  0  0
  1  2  1  0  0  0  0
  2  3  4  0  0  0  0
  2 19  4  0  0  0  0
  3  4  4  0  0  0  0
  4  5  4  0  0  0  0
  5  6  4  0  0  0  0
  6  7  1  0  0  0  0
  6 19  4  0  0  0  0
  7  8  2  0  0  0  0
  7  9  1  0  0  0  0
  9 10  1  0  0  0  0
  9 14  1  0  0  0  0
 10 11  1  0  0  0  0
 11 12  1  0  0  0  0
 11 13  1  0  0  0  0
 14 15  1  0  0  0  0
 14 18  1  0  0  0  0
 15 16  1  0  0  0  0
 16 17  1  0  0  0  0
 17 18  1  0  0  0  0
 19 20  1  0  0  0  0
 20 21  1  0  0  0  0
 20 22  1  0  0  0  0
 20 23  1  0  0  0  0
M  END
>  <Name_Molregno>
617939

>  <Norepinephrine transporter>
7.59

>  <Serotonin transporter>
7.6

$$$$
617990
  Marvin  02231216192D 0   1.00000     0.00000     0

 20 21  0  0  1  0  0  0  0  0999 V2000
   -3.5481   -0.5578    0.0000 Cl  0  0  0  0  0  0  0  0  0
   -2.8336   -0.1453    0.0000 C   0  0  0  0  0  0  0  0  0
   -2.8336    0.6797    0.0000 C   0  0  0  0  0  0  0  0  0
   -2.1191    1.0922    0.0000 C   0  0  0  0  0  0  0  0  0
   -2.1191    1.9172    0.0000 F   0  0  0  0  0  0  0  0  0
   -1.4047    0.6797    0.0000 C   0  0  0  0  0  0  0  0  0
   -1.4047   -0.1453    0.0000 C   0  0  0  0  0  0  0  0  0
   -2.1191   -0.5578    0.0000 C   0  0  0  0  0  0  0  0  0
   -2.1191   -1.3828    0.0000 C   0  0  0  0  0  0  0  0  0
   -2.8336   -1.7953    0.0000 O   0  0  0  0  0  0  0  0  0
   -1.4047   -1.7953    0.0000 N   0  0  0  0  0  0  0  0  0
   -0.6902   -1.3828    0.0000 C   0  0  0  0  0  0  0  0  0
    0.0243   -1.7953    0.0000 C   0  0  0  0  0  0  0  0  0
    0.7388   -1.3828    0.0000 C   0  0  0  0  0  0  0  0  0
    0.0243   -2.6203    0.0000 C   0  0  0  0  0  0  0  0  0
   -1.4047   -2.6203    0.0000 C   0  0  0  0  0  0  0  0  0
   -2.0721   -3.1052    0.0000 C   0  0  0  0  0  0  0  0  0
   -1.8172   -3.8898    0.0000 C   0  0  0  0  0  0  0  0  0
   -0.9922   -3.8898    0.0000 N   0  0  0  0  0  0  0  0  0
   -0.7372   -3.1052    0.0000 C   0  0  0  0  0  0  0  0  0
  1  2  1  0  0  0  0
  2  3  4  0  0  0  0
  2  8  4  0  0  0  0
  3  4  4  0  0  0  0
  4  5  1  0  0  0  0
  4  6  4  0  0  0  0
  6  7  4  0  0  0  0
  7  8  4  0  0  0  0
  8  9  1  0  0  0  0
  9 10  2  0  0  0  0
  9 11  1  0  0  0  0
 11 12  1  0  0  0  0
 11 16  1  0  0  0  0
 12 13  1  0  0  0  0
 13 14  1  0  0  0  0
 13 15  1  0  0  0  0
 16 17  1  0  0  0  0
 16 20  1  0  0  0  0
 17 18  1  0  0  0  0
 18 19  1  0  0  0  0
 19 20  1  0  0  0  0
M  END
>  <Name_Molregno>
617990

>  <Dopamine transporter>
5.6

>  <Norepinephrine transporter>
6.58

>  <Serotonin transporter>
8.15

$$$$
617991
  Marvin  02231216192D 0   1.00000     0.00000     0

 21 22  0  0  1  0  0  0  0  0999 V2000
   -0.8775   -0.6827    0.0000 O   0  0  0  0  0  0  0  0  0
   -0.1631   -1.0952    0.0000 C   0  0  0  0  0  0  0  0  0
    0.5514   -0.6827    0.0000 N   0  0  0  0  0  0  0  0  0
    1.2659   -1.0952    0.0000 C   0  0  0  0  0  0  0  0  0
    1.9804   -0.6827    0.0000 C   0  0  0  0  0  0  0  0  0
    2.6948   -1.0952    0.0000 C   0  0  0  0  0  0  0  0  0
    1.9804    0.1423    0.0000 C   0  0  0  0  0  0  0  0  0
    0.5514    0.1423    0.0000 C   0  0  0  0  0  0  0  0  0
   -0.1160    0.6273    0.0000 C   0  0  0  0  0  0  0  0  0
    0.1389    1.4119    0.0000 C   0  0  0  0  0  0  0  0  0
    0.9639    1.4119    0.0000 N   0  0  0  0  0  0  0  0  0
    1.2189    0.6273    0.0000 C   0  0  0  0  0  0  0  0  0
   -0.1631   -1.9202    0.0000 C   0  0  0  0  0  0  0  0  0
    0.5514   -2.3327    0.0000 C   0  0  0  0  0  0  0  0  0
    0.5514   -3.1577    0.0000 C   0  0  0  0  0  0  0  0  0
   -0.1631   -3.5702    0.0000 C   0  0  0  0  0  0  0  0  0
   -0.8775   -3.1577    0.0000 C   0  0  0  0  0  0  0  0  0
   -0.8775   -2.3327    0.0000 C   0  0  0  0  0  0  0  0  0
   -1.5920   -1.9202    0.0000 C   0  0  0  0  0  0  0  0  0
   -2.3065   -2.3327    0.0000 C   0  0  0  0  0  0  0  0  0
   -1.5920   -1.0952    0.0000 C   0  0  0  0  0  0  0  0  0
  1  2  2  0  0  0  0
  2  3  1  0  0  0  0
  2 13  1  0  0  0  0
  3  4  1  0  0  0  0
  3  8  1  0  0  0  0
  4  5  1  0  0  0  0
  5  6  1  0  0  0  0
  5  7  1  0  0  0  0
  8  9  1  0  0  0  0
  8 12  1  0  0  0  0
  9 10  1  0  0  0  0
 10 11  1  0  0  0  0
 11 12  1  0  0  0  0
 13 14  4  0  0  0  0
 13 18  4  0  0  0  0
 14 15  4  0  0  0  0
 15 16  4  0  0  0  0
 16 17  4  0  0  0  0
 17 18  4  0  0  0  0
 18 19  1  0  0  0  0
 19 20  1  0  0  0  0
 19 21  1  0  0  0  0
M  END
>  <Name_Molregno>
617991

>  <Dopamine transporter>
5.44

>  <Norepinephrine transporter>
7.19

>  <Serotonin transporter>
5.88

$$$$
617992
  Marvin  02231216192D 0   1.00000     0.00000     0

 20 21  0  0  1  0  0  0  0  0999 V2000
   -0.6769   -0.2668    0.0000 Cl  0  0  0  0  0  0  0  0  0
   -0.6769   -1.0918    0.0000 C   0  0  0  0  0  0  0  0  0
    0.0376   -1.5043    0.0000 C   0  0  0  0  0  0  0  0  0
    0.0376   -2.3293    0.0000 C   0  0  0  0  0  0  0  0  0
   -0.6769   -2.7418    0.0000 C   0  0  0  0  0  0  0  0  0
   -1.3913   -2.3293    0.0000 C   0  0  0  0  0  0  0  0  0
   -1.3913   -1.5043    0.0000 C   0  0  0  0  0  0  0  0  0
   -2.1058   -1.0918    0.0000 Cl  0  0  0  0  0  0  0  0  0
    0.7521   -1.0918    0.0000 C   0  0  0  0  0  0  0  0  0
    0.7521   -0.2668    0.0000 O   0  0  0  0  0  0  0  0  0
    1.4666   -1.5043    0.0000 N   0  0  0  0  0  0  0  0  0
    2.1810   -1.0918    0.0000 C   0  0  0  0  0  0  0  0  0
    2.8955   -1.5043    0.0000 C   0  0  0  0  0  0  0  0  0
    3.6100   -1.0918    0.0000 C   0  0  0  0  0  0  0  0  0
    2.8955   -2.3293    0.0000 C   0  0  0  0  0  0  0  0  0
    1.4666   -2.3293    0.0000 C   0  0  0  0  0  0  0  0  0
    2.1340   -2.8142    0.0000 C   0  0  0  0  0  0  0  0  0
    1.8791   -3.5988    0.0000 C   0  0  0  0  0  0  0  0  0
    1.0541   -3.5988    0.0000 N   0  0  0  0  0  0  0  0  0
    0.7991   -2.8142    0.0000 C   0  0  0  0  0  0  0  0  0
  1  2  1  0  0  0  0
  2  3  4  0  0  0  0
  2  7  4  0  0  0  0
  3  4  4  0  0  0  0
  3  9  1  0  0  0  0
  4  5  4  0  0  0  0
  5  6  4  0  0  0  0
  6  7  4  0  0  0  0
  7  8  1  0  0  0  0
  9 10  2  0  0  0  0
  9 11  1  0  0  0  0
 11 12  1  0  0  0  0
 11 16  1  0  0  0  0
 12 13  1  0  0  0  0
 13 14  1  0  0  0  0
 13 15  1  0  0  0  0
 16 17  1  0  0  0  0
 16 20  1  0  0  0  0
 17 18  1  0  0  0  0
 18 19  1  0  0  0  0
 19 20  1  0  0  0  0
M  END
>  <Name_Molregno>
617992

>  <Dopamine transporter>
6.01

>  <Norepinephrine transporter>
7.38

>  <Serotonin transporter>
8.11

$$$$
618862
  Marvin  02231216192D 0   1.00000     0.00000     0

 18 19  0  0  1  0  0  0  0  0999 V2000
    1.5559   -0.9240    0.0000 Cl  0  0  0  0  0  0  0  0  0
    0.8414   -0.5115    0.0000 C   0  0  0  0  0  0  0  0  0
    0.1270   -0.9240    0.0000 C   0  0  0  0  0  0  0  0  0
   -0.5875   -0.5115    0.0000 C   0  0  0  0  0  0  0  0  0
   -0.5875    0.3135    0.0000 C   0  0  0  0  0  0  0  0  0
    0.1270    0.7260    0.0000 C   0  0  0  0  0  0  0  0  0
    0.8414    0.3135    0.0000 C   0  0  0  0  0  0  0  0  0
    1.5559    0.7260    0.0000 Cl  0  0  0  0  0  0  0  0  0
    0.1270   -1.7490    0.0000 C   0  0  0  0  0  0  0  0  0
   -0.5875   -2.1615    0.0000 O   0  0  0  0  0  0  0  0  0
    0.8414   -2.1615    0.0000 N   0  0  0  0  0  0  0  0  0
    1.5559   -1.7490    0.0000 C   0  0  0  0  0  0  0  0  0
    2.2704   -2.1615    0.0000 C   0  0  0  0  0  0  0  0  0
    0.8414   -2.9865    0.0000 C   0  0  0  0  0  0  0  0  0
    1.5089   -3.4714    0.0000 C   0  0  0  0  0  0  0  0  0
    1.2539   -4.2561    0.0000 C   0  0  0  0  0  0  0  0  0
    0.4289   -4.2561    0.0000 N   0  0  0  0  0  0  0  0  0
    0.1740   -3.4714    0.0000 C   0  0  0  0  0  0  0  0  0
  1  2  1  0  0  0  0
  2  3  4  0  0  0  0
  2  7  4  0  0  0  0
  3  4  4  0  0  0  0
  3  9  1  0  0  0  0
  4  5  4  0  0  0  0
  5  6  4  0  0  0  0
  6  7  4  0  0  0  0
  7  8  1  0  0  0  0
  9 10  2  0  0  0  0
  9 11  1  0  0  0  0
 11 12  1  0  0  0  0
 11 14  1  0  0  0  0
 12 13  1  0  0  0  0
 14 15  1  0  0  0  0
 14 18  1  0  0  0  0
 15 16  1  0  0  0  0
 16 17  1  0  0  0  0
 17 18  1  0  0  0  0
M  END
>  <Name_Molregno>
618862

>  <Dopamine transporter>
5.96

>  <Norepinephrine transporter>
6.66

>  <Serotonin transporter>
7.54

$$$$
618929
  Marvin  02231216192D 0   1.00000     0.00000     0

 19 20  0  0  1  0  0  0  0  0999 V2000
   -0.6279   -0.2052    0.0000 Cl  0  0  0  0  0  0  0  0  0
   -0.6279   -1.0302    0.0000 C   0  0  0  0  0  0  0  0  0
    0.0866   -1.4427    0.0000 C   0  0  0  0  0  0  0  0  0
    0.0866   -2.2677    0.0000 C   0  0  0  0  0  0  0  0  0
   -0.6279   -2.6802    0.0000 C   0  0  0  0  0  0  0  0  0
   -1.3423   -2.2677    0.0000 C   0  0  0  0  0  0  0  0  0
   -1.3423   -1.4427    0.0000 C   0  0  0  0  0  0  0  0  0
   -2.0568   -1.0302    0.0000 Cl  0  0  0  0  0  0  0  0  0
    0.8011   -1.0302    0.0000 C   0  0  0  0  0  0  0  0  0
    0.8011   -0.2052    0.0000 O   0  0  0  0  0  0  0  0  0
    1.5155   -1.4427    0.0000 N   0  0  0  0  0  0  0  0  0
    2.2300   -1.0302    0.0000 C   0  0  0  0  0  0  0  0  0
    2.9445   -1.4427    0.0000 C   0  0  0  0  0  0  0  0  0
    3.6589   -1.0302    0.0000 C   0  0  0  0  0  0  0  0  0
    1.5155   -2.2677    0.0000 C   0  0  0  0  0  0  0  0  0
    2.1830   -2.7527    0.0000 C   0  0  0  0  0  0  0  0  0
    1.9280   -3.5373    0.0000 C   0  0  0  0  0  0  0  0  0
    1.1030   -3.5373    0.0000 N   0  0  0  0  0  0  0  0  0
    0.8481   -2.7527    0.0000 C   0  0  0  0  0  0  0  0  0
  1  2  1  0  0  0  0
  2  3  4  0  0  0  0
  2  7  4  0  0  0  0
  3  4  4  0  0  0  0
  3  9  1  0  0  0  0
  4  5  4  0  0  0  0
  5  6  4  0  0  0  0
  6  7  4  0  0  0  0
  7  8  1  0  0  0  0
  9 10  2  0  0  0  0
  9 11  1  0  0  0  0
 11 12  1  0  0  0  0
 11 15  1  0  0  0  0
 12 13  1  0  0  0  0
 13 14  1  0  0  0  0
 15 16  1  0  0  0  0
 15 19  1  0  0  0  0
 16 17  1  0  0  0  0
 17 18  1  0  0  0  0
 18 19  1  0  0  0  0
M  END
>  <Name_Molregno>
618929

>  <Dopamine transporter>
6.2

>  <Norepinephrine transporter>
7.44

>  <Serotonin transporter>
7.8

$$$$
618931
  Marvin  02231216192D 0   1.00000     0.00000     0

 21 22  0  0  1  0  0  0  0  0999 V2000
   -0.3378   -2.0685    0.0000 Cl  0  0  0  0  0  0  0  0  0
    0.3767   -2.4810    0.0000 C   0  0  0  0  0  0  0  0  0
    1.0912   -2.0685    0.0000 C   0  0  0  0  0  0  0  0  0
    1.8056   -2.4810    0.0000 C   0  0  0  0  0  0  0  0  0
    1.8056   -3.3060    0.0000 C   0  0  0  0  0  0  0  0  0
    1.0912   -3.7185    0.0000 C   0  0  0  0  0  0  0  0  0
    0.3767   -3.3060    0.0000 C   0  0  0  0  0  0  0  0  0
   -0.3378   -3.7185    0.0000 Cl  0  0  0  0  0  0  0  0  0
    1.0912   -1.2435    0.0000 C   0  0  0  0  0  0  0  0  0
    0.3767   -0.8310    0.0000 O   0  0  0  0  0  0  0  0  0
    1.8056   -0.8310    0.0000 N   0  0  0  0  0  0  0  0  0
    2.5201   -1.2435    0.0000 C   0  0  0  0  0  0  0  0  0
    3.2346   -0.8310    0.0000 C   0  0  0  0  0  0  0  0  0
    3.9491   -0.4185    0.0000 F   0  0  0  0  0  0  0  0  0
    3.6471   -1.5455    0.0000 F   0  0  0  0  0  0  0  0  0
    2.8221   -0.1166    0.0000 F   0  0  0  0  0  0  0  0  0
    1.8056   -0.0060    0.0000 C   0  0  0  0  0  0  0  0  0
    2.4731    0.4789    0.0000 C   0  0  0  0  0  0  0  0  0
    2.2181    1.2635    0.0000 C   0  0  0  0  0  0  0  0  0
    1.3931    1.2635    0.0000 N   0  0  0  0  0  0  0  0  0
    1.1382    0.4789    0.0000 C   0  0  0  0  0  0  0  0  0
  1  2  1  0  0  0  0
  2  3  4  0  0  0  0
  2  7  4  0  0  0  0
  3  4  4  0  0  0  0
  3  9  1  0  0  0  0
  4  5  4  0  0  0  0
  5  6  4  0  0  0  0
  6  7  4  0  0  0  0
  7  8  1  0  0  0  0
  9 10  2  0  0  0  0
  9 11  1  0  0  0  0
 11 12  1  0  0  0  0
 11 17  1  0  0  0  0
 12 13  1  0  0  0  0
 13 14  1  0  0  0  0
 13 15  1  0  0  0  0
 13 16  1  0  0  0  0
 17 18  1  0  0  0  0
 17 21  1  0  0  0  0
 18 19  1  0  0  0  0
 19 20  1  0  0  0  0
 20 21  1  0  0  0  0
M  END
>  <Name_Molregno>
618931

>  <Dopamine transporter>
5.43

>  <Norepinephrine transporter>
7.02

>  <Serotonin transporter>
7.41

$$$$
618932
  Marvin  02231216192D 0   1.00000     0.00000     0

 21 23  0  0  1  0  0  0  0  0999 V2000
    0.1641   -1.4130    0.0000 Cl  0  0  0  0  0  0  0  0  0
    0.8786   -1.8255    0.0000 C   0  0  0  0  0  0  0  0  0
    1.5931   -1.4130    0.0000 C   0  0  0  0  0  0  0  0  0
    2.3076   -1.8255    0.0000 C   0  0  0  0  0  0  0  0  0
    2.3076   -2.6505    0.0000 C   0  0  0  0  0  0  0  0  0
    1.5931   -3.0630    0.0000 C   0  0  0  0  0  0  0  0  0
    0.8786   -2.6505    0.0000 C   0  0  0  0  0  0  0  0  0
    0.1641   -3.0630    0.0000 Cl  0  0  0  0  0  0  0  0  0
    1.5931   -0.5880    0.0000 C   0  0  0  0  0  0  0  0  0
    0.8786   -0.1755    0.0000 O   0  0  0  0  0  0  0  0  0
    2.3076   -0.1755    0.0000 N   0  0  0  0  0  0  0  0  0
    3.0220   -0.5880    0.0000 C   0  0  0  0  0  0  0  0  0
    3.7365   -0.1755    0.0000 C   0  0  0  0  0  0  0  0  0
    3.7365    0.6495    0.0000 C   0  0  0  0  0  0  0  0  0
    3.3240    1.3640    0.0000 C   0  0  0  0  0  0  0  0  0
    4.1490    1.3640    0.0000 C   0  0  0  0  0  0  0  0  0
    2.3076    0.6495    0.0000 C   0  0  0  0  0  0  0  0  0
    1.6401    1.1345    0.0000 C   0  0  0  0  0  0  0  0  0
    1.8951    1.9191    0.0000 C   0  0  0  0  0  0  0  0  0
    2.7201    1.9191    0.0000 N   0  0  0  0  0  0  0  0  0
    2.9750    1.1345    0.0000 C   0  0  0  0  0  0  0  0  0
  1  2  1  0  0  0  0
  2  3  4  0  0  0  0
  2  7  4  0  0  0  0
  3  4  4  0  0  0  0
  3  9  1  0  0  0  0
  4  5  4  0  0  0  0
  5  6  4  0  0  0  0
  6  7  4  0  0  0  0
  7  8  1  0  0  0  0
  9 10  2  0  0  0  0
  9 11  1  0  0  0  0
 11 12  1  0  0  0  0
 11 17  1  0  0  0  0
 12 13  1  0  0  0  0
 13 14  1  0  0  0  0
 14 15  1  0  0  0  0
 14 16  1  0  0  0  0
 15 16  1  0  0  0  0
 17 18  1  0  0  0  0
 17 21  1  0  0  0  0
 18 19  1  0  0  0  0
 19 20  1  0  0  0  0
 20 21  1  0  0  0  0
M  END
>  <Name_Molregno>
618932

>  <Dopamine transporter>
6.39

>  <Norepinephrine transporter>
7.62

>  <Serotonin transporter>
7.82

$$$$
618933
  Marvin  02231216192D 0   1.00000     0.00000     0

 21 22  0  0  1  0  0  0  0  0999 V2000
    0.1195   -1.0673    0.0000 Cl  0  0  0  0  0  0  0  0  0
    0.8340   -1.4798    0.0000 C   0  0  0  0  0  0  0  0  0
    1.5484   -1.0673    0.0000 C   0  0  0  0  0  0  0  0  0
    2.2629   -1.4798    0.0000 C   0  0  0  0  0  0  0  0  0
    2.2629   -2.3048    0.0000 C   0  0  0  0  0  0  0  0  0
    1.5484   -2.7173    0.0000 C   0  0  0  0  0  0  0  0  0
    0.8340   -2.3048    0.0000 C   0  0  0  0  0  0  0  0  0
    0.1195   -2.7173    0.0000 Cl  0  0  0  0  0  0  0  0  0
    1.5484   -0.2423    0.0000 C   0  0  0  0  0  0  0  0  0
    0.8340    0.1702    0.0000 O   0  0  0  0  0  0  0  0  0
    2.2629    0.1702    0.0000 N   0  0  0  0  0  0  0  0  0
    2.9774   -0.2423    0.0000 C   0  0  0  0  0  0  0  0  0
    3.6918    0.1702    0.0000 C   0  0  0  0  0  0  0  0  0
    4.4063    0.5827    0.0000 C   0  0  0  0  0  0  0  0  0
    4.1043   -0.5442    0.0000 C   0  0  0  0  0  0  0  0  0
    3.2793    0.8847    0.0000 C   0  0  0  0  0  0  0  0  0
    2.2629    0.9952    0.0000 C   0  0  0  0  0  0  0  0  0
    2.9303    1.4802    0.0000 C   0  0  0  0  0  0  0  0  0
    2.6754    2.2648    0.0000 C   0  0  0  0  0  0  0  0  0
    1.8504    2.2648    0.0000 N   0  0  0  0  0  0  0  0  0
    1.5955    1.4802    0.0000 C   0  0  0  0  0  0  0  0  0
  1  2  1  0  0  0  0
  2  3  4  0  0  0  0
  2  7  4  0  0  0  0
  3  4  4  0  0  0  0
  3  9  1  0  0  0  0
  4  5  4  0  0  0  0
  5  6  4  0  0  0  0
  6  7  4  0  0  0  0
  7  8  1  0  0  0  0
  9 10  2  0  0  0  0
  9 11  1  0  0  0  0
 11 12  1  0  0  0  0
 11 17  1  0  0  0  0
 12 13  1  0  0  0  0
 13 14  1  0  0  0  0
 13 15  1  0  0  0  0
 13 16  1  0  0  0  0
 17 18  1  0  0  0  0
 17 21  1  0  0  0  0
 18 19  1  0  0  0  0
 19 20  1  0  0  0  0
 20 21  1  0  0  0  0
M  END
>  <Name_Molregno>
618933

>  <Dopamine transporter>
6.56

>  <Norepinephrine transporter>
7.89

>  <Serotonin transporter>
8.4

$$$$
618934
  Marvin  02231216192D 0   1.00000     0.00000     0

 21 23  0  0  1  0  0  0  0  0999 V2000
    2.5322   -1.2877    0.0000 Cl  0  0  0  0  0  0  0  0  0
    1.8177   -0.8752    0.0000 C   0  0  0  0  0  0  0  0  0
    1.1033   -1.2877    0.0000 C   0  0  0  0  0  0  0  0  0
    0.3888   -0.8752    0.0000 C   0  0  0  0  0  0  0  0  0
    0.3888   -0.0502    0.0000 C   0  0  0  0  0  0  0  0  0
    1.1033    0.3623    0.0000 C   0  0  0  0  0  0  0  0  0
    1.8177   -0.0502    0.0000 C   0  0  0  0  0  0  0  0  0
    2.5322    0.3623    0.0000 Cl  0  0  0  0  0  0  0  0  0
    1.1033   -2.1127    0.0000 C   0  0  0  0  0  0  0  0  0
    1.8177   -2.5252    0.0000 O   0  0  0  0  0  0  0  0  0
    0.3888   -2.5252    0.0000 N   0  0  0  0  0  0  0  0  0
    0.3888   -3.3502    0.0000 C   0  0  0  0  0  0  0  0  0
    1.0562   -3.8351    0.0000 C   0  0  0  0  0  0  0  0  0
    0.8013   -4.6197    0.0000 C   0  0  0  0  0  0  0  0  0
   -0.0237   -4.6197    0.0000 C   0  0  0  0  0  0  0  0  0
   -0.2786   -3.8351    0.0000 C   0  0  0  0  0  0  0  0  0
   -0.3257   -2.1127    0.0000 C   0  0  0  0  0  0  0  0  0
   -1.0794   -2.4482    0.0000 C   0  0  0  0  0  0  0  0  0
   -1.6314   -1.8351    0.0000 C   0  0  0  0  0  0  0  0  0
   -1.2189   -1.1207    0.0000 N   0  0  0  0  0  0  0  0  0
   -0.4119   -1.2922    0.0000 C   0  0  0  0  0  0  0  0  0
  1  2  1  0  0  0  0
  2  3  4  0  0  0  0
  2  7  4  0  0  0  0
  3  4  4  0  0  0  0
  3  9  1  0  0  0  0
  4  5  4  0  0  0  0
  5  6  4  0  0  0  0
  6  7  4  0  0  0  0
  7  8  1  0  0  0  0
  9 10  2  0  0  0  0
  9 11  1  0  0  0  0
 11 12  1  0  0  0  0
 11 17  1  0  0  0  0
 12 13  1  0  0  0  0
 12 16  1  0  0  0  0
 13 14  1  0  0  0  0
 14 15  1  0  0  0  0
 15 16  1  0  0  0  0
 17 18  1  0  0  0  0
 17 21  1  0  0  0  0
 18 19  1  0  0  0  0
 19 20  1  0  0  0  0
 20 21  1  0  0  0  0
M  END
>  <Name_Molregno>
618934

>  <Dopamine transporter>
6.01

>  <Norepinephrine transporter>
7.96

>  <Serotonin transporter>
8.22

$$$$
618935
  Marvin  02231216192D 0   1.00000     0.00000     0

 21 22  0  0  1  0  0  0  0  0999 V2000
    1.9056    0.6363    0.0000 Cl  0  0  0  0  0  0  0  0  0
    1.1911    0.2238    0.0000 C   0  0  0  0  0  0  0  0  0
    1.1911   -0.6012    0.0000 C   0  0  0  0  0  0  0  0  0
    0.4766   -1.0137    0.0000 C   0  0  0  0  0  0  0  0  0
   -0.2379   -0.6012    0.0000 C   0  0  0  0  0  0  0  0  0
   -0.2379    0.2238    0.0000 C   0  0  0  0  0  0  0  0  0
    0.4766    0.6363    0.0000 C   0  0  0  0  0  0  0  0  0
    0.4766    1.4613    0.0000 Cl  0  0  0  0  0  0  0  0  0
    1.9056   -1.0137    0.0000 C   0  0  0  0  0  0  0  0  0
    2.6200   -0.6012    0.0000 O   0  0  0  0  0  0  0  0  0
    1.9056   -1.8387    0.0000 N   0  0  0  0  0  0  0  0  0
    2.6200   -2.2512    0.0000 C   0  0  0  0  0  0  0  0  0
    2.6200   -3.0762    0.0000 C   0  0  0  0  0  0  0  0  0
    3.3345   -3.4887    0.0000 C   0  0  0  0  0  0  0  0  0
    3.3345   -1.8387    0.0000 C   0  0  0  0  0  0  0  0  0
    4.0490   -2.2512    0.0000 C   0  0  0  0  0  0  0  0  0
    1.1911   -2.2512    0.0000 C   0  0  0  0  0  0  0  0  0
    1.1048   -3.0717    0.0000 C   0  0  0  0  0  0  0  0  0
    0.2979   -3.2433    0.0000 C   0  0  0  0  0  0  0  0  0
   -0.1146   -2.5288    0.0000 N   0  0  0  0  0  0  0  0  0
    0.4374   -1.9157    0.0000 C   0  0  0  0  0  0  0  0  0
  1  2  1  0  0  0  0
  2  3  4  0  0  0  0
  2  7  4  0  0  0  0
  3  4  4  0  0  0  0
  3  9  1  0  0  0  0
  4  5  4  0  0  0  0
  5  6  4  0  0  0  0
  6  7  4  0  0  0  0
  7  8  1  0  0  0  0
  9 10  2  0  0  0  0
  9 11  1  0  0  0  0
 11 12  1  0  0  0  0
 11 17  1  0  0  0  0
 12 13  1  0  0  0  0
 12 15  1  0  0  0  0
 13 14  1  0  0  0  0
 15 16  1  0  0  0  0
 17 18  1  0  0  0  0
 17 21  1  0  0  0  0
 18 19  1  0  0  0  0
 19 20  1  0  0  0  0
 20 21  1  0  0  0  0
M  END
>  <Name_Molregno>
618935

>  <Dopamine transporter>
5.59

>  <Norepinephrine transporter>
7.43

>  <Serotonin transporter>
7.7

$$$$
632040
  Marvin  02231216192D 0   1.00000     0.00000     0

 21 23  0  0  1  0  0  0  0  0999 V2000
    0.0403    0.0470    0.0000 O   0  0  0  0  0  0  0  0  0
    0.0403   -0.7780    0.0000 C   0  0  0  0  0  0  0  0  0
    0.7548   -1.1905    0.0000 C   0  0  0  0  0  0  0  0  0
    0.7548   -2.0155    0.0000 C   0  0  0  0  0  0  0  0  0
    0.0403   -2.4280    0.0000 C   0  0  0  0  0  0  0  0  0
   -0.6741   -2.0155    0.0000 C   0  0  0  0  0  0  0  0  0
   -0.6741   -1.1905    0.0000 C   0  0  0  0  0  0  0  0  0
   -1.3886   -0.7780    0.0000 C   0  0  0  0  0  0  0  0  0
   -2.1031   -1.1905    0.0000 C   0  0  0  0  0  0  0  0  0
   -2.8176   -0.7780    0.0000 N   0  0  0  0  0  0  0  0  0
   -3.5320   -1.1905    0.0000 C   0  0  0  0  0  0  0  0  0
   -4.2465   -0.7780    0.0000 C   0  0  0  0  0  0  0  0  0
   -4.2465    0.0470    0.0000 N   0  0  0  0  0  0  0  0  0
   -3.5320    0.4595    0.0000 C   0  0  0  0  0  0  0  0  0
   -2.8176    0.0470    0.0000 C   0  0  0  0  0  0  0  0  0
   -2.1031   -2.0155    0.0000 C   0  0  0  0  0  0  0  0  0
   -1.3886   -2.4280    0.0000 C   0  0  0  0  0  0  0  0  0
   -1.3886   -3.2530    0.0000 C   0  0  0  0  0  0  0  0  0
   -2.1031   -3.6655    0.0000 C   0  0  0  0  0  0  0  0  0
   -2.8176   -3.2530    0.0000 C   0  0  0  0  0  0  0  0  0
   -2.8176   -2.4280    0.0000 C   0  0  0  0  0  0  0  0  0
  1  2  1  0  0  0  0
  2  3  4  0  0  0  0
  2  7  4  0  0  0  0
  3  4  4  0  0  0  0
  4  5  4  0  0  0  0
  5  6  4  0  0  0  0
  6  7  4  0  0  0  0
  7  8  1  0  0  0  0
  8  9  1  0  0  0  0
  9 10  1  0  0  0  0
  9 16  1  0  0  0  0
 10 11  1  0  0  0  0
 10 15  1  0  0  0  0
 11 12  1  0  0  0  0
 12 13  1  0  0  0  0
 13 14  1  0  0  0  0
 14 15  1  0  0  0  0
 16 17  4  0  0  0  0
 16 21  4  0  0  0  0
 17 18  4  0  0  0  0
 18 19  4  0  0  0  0
 19 20  4  0  0  0  0
 20 21  4  0  0  0  0
M  END
>  <Name_Molregno>
632040

>  <Dopamine transporter>
5.68

>  <Norepinephrine transporter>
7.24

>  <Serotonin transporter>
8.1

$$$$
632146
  Marvin  02231216192D 0   1.00000     0.00000     0

 24 26  0  0  1  0  0  0  0  0999 V2000
    0.0404    2.4796    0.0000 O   0  0  0  0  0  0  0  0  0
    0.7548    2.8921    0.0000 C   0  0  0  0  0  0  0  0  0
    0.7548    3.7171    0.0000 C   0  0  0  0  0  0  0  0  0
    1.4693    2.4796    0.0000 C   0  0  0  0  0  0  0  0  0
    0.0404    1.6546    0.0000 C   0  0  0  0  0  0  0  0  0
    0.7548    1.2421    0.0000 C   0  0  0  0  0  0  0  0  0
    0.7548    0.4171    0.0000 C   0  0  0  0  0  0  0  0  0
    0.0404    0.0046    0.0000 C   0  0  0  0  0  0  0  0  0
   -0.6741    0.4171    0.0000 C   0  0  0  0  0  0  0  0  0
   -0.6741    1.2421    0.0000 C   0  0  0  0  0  0  0  0  0
   -1.3886    1.6546    0.0000 C   0  0  0  0  0  0  0  0  0
   -2.1030    1.2421    0.0000 C   0  0  0  0  0  0  0  0  0
   -2.8175    1.6546    0.0000 N   0  0  0  0  0  0  0  0  0
   -3.5320    1.2421    0.0000 C   0  0  0  0  0  0  0  0  0
   -4.2465    1.6546    0.0000 C   0  0  0  0  0  0  0  0  0
   -4.2465    2.4796    0.0000 N   0  0  0  0  0  0  0  0  0
   -3.5320    2.8921    0.0000 C   0  0  0  0  0  0  0  0  0
   -2.8175    2.4796    0.0000 C   0  0  0  0  0  0  0  0  0
   -2.1030    0.4171    0.0000 C   0  0  0  0  0  0  0  0  0
   -1.3886    0.0046    0.0000 C   0  0  0  0  0  0  0  0  0
   -1.3886   -0.8204    0.0000 C   0  0  0  0  0  0  0  0  0
   -2.1030   -1.2329    0.0000 C   0  0  0  0  0  0  0  0  0
   -2.8175   -0.8204    0.0000 C   0  0  0  0  0  0  0  0  0
   -2.8175    0.0046    0.0000 C   0  0  0  0  0  0  0  0  0
  1  2  1  0  0  0  0
  1  5  1  0  0  0  0
  2  3  1  0  0  0  0
  2  4  1  0  0  0  0
  5  6  4  0  0  0  0
  5 10  4  0  0  0  0
  6  7  4  0  0  0  0
  7  8  4  0  0  0  0
  8  9  4  0  0  0  0
  9 10  4  0  0  0  0
 10 11  1  0  0  0  0
 11 12  1  0  0  0  0
 12 13  1  0  0  0  0
 12 19  1  0  0  0  0
 13 14  1  0  0  0  0
 13 18  1  0  0  0  0
 14 15  1  0  0  0  0
 15 16  1  0  0  0  0
 16 17  1  0  0  0  0
 17 18  1  0  0  0  0
 19 20  4  0  0  0  0
 19 24  4  0  0  0  0
 20 21  4  0  0  0  0
 21 22  4  0  0  0  0
 22 23  4  0  0  0  0
 23 24  4  0  0  0  0
M  END
>  <Name_Molregno>
632146

>  <Dopamine transporter>
5.5

>  <Norepinephrine transporter>
7.66

>  <Serotonin transporter>
7.74

$$$$
632147
  Marvin  02231216192D 0   1.00000     0.00000     0

 24 27  0  0  1  0  0  0  0  0999 V2000
   -1.0472   -3.0697    0.0000 O   0  0  0  0  0  0  0  0  0
   -1.7616   -2.6572    0.0000 C   0  0  0  0  0  0  0  0  0
   -2.4761   -3.0697    0.0000 C   0  0  0  0  0  0  0  0  0
   -3.1906   -2.6572    0.0000 C   0  0  0  0  0  0  0  0  0
   -3.1906   -1.8322    0.0000 C   0  0  0  0  0  0  0  0  0
   -2.4761   -1.4197    0.0000 C   0  0  0  0  0  0  0  0  0
   -1.7616   -1.8322    0.0000 C   0  0  0  0  0  0  0  0  0
   -1.0472   -1.4197    0.0000 C   0  0  0  0  0  0  0  0  0
   -1.0472   -0.5947    0.0000 C   0  0  0  0  0  0  0  0  0
   -0.3327   -0.1822    0.0000 N   0  0  0  0  0  0  0  0  0
   -0.3327    0.6428    0.0000 C   0  0  0  0  0  0  0  0  0
    0.3818    1.0553    0.0000 C   0  0  0  0  0  0  0  0  0
    1.0963    0.6428    0.0000 N   0  0  0  0  0  0  0  0  0
    1.0963   -0.1822    0.0000 C   0  0  0  0  0  0  0  0  0
    0.3818   -0.5947    0.0000 C   0  0  0  0  0  0  0  0  0
   -1.7616   -0.1822    0.0000 C   0  0  0  0  0  0  0  0  0
   -2.4761   -0.5947    0.0000 C   0  0  0  0  0  0  0  0  0
   -3.1906   -0.1822    0.0000 C   0  0  0  0  0  0  0  0  0
   -3.1906    0.6428    0.0000 C   0  0  0  0  0  0  0  0  0
   -2.4761    1.0553    0.0000 C   0  0  0  0  0  0  0  0  0
   -1.7616    0.6428    0.0000 C   0  0  0  0  0  0  0  0  0
   -1.0472   -3.8947    0.0000 C   0  0  0  0  0  0  0  0  0
   -0.6347   -4.6092    0.0000 C   0  0  0  0  0  0  0  0  0
   -1.4597   -4.6092    0.0000 C   0  0  0  0  0  0  0  0  0
  1  2  1  0  0  0  0
  1 22  1  0  0  0  0
  2  3  4  0  0  0  0
  2  7  4  0  0  0  0
  3  4  4  0  0  0  0
  4  5  4  0  0  0  0
  5  6  4  0  0  0  0
  6  7  4  0  0  0  0
  7  8  1  0  0  0  0
  8  9  1  0  0  0  0
  9 10  1  0  0  0  0
  9 16  1  0  0  0  0
 10 11  1  0  0  0  0
 10 15  1  0  0  0  0
 11 12  1  0  0  0  0
 12 13  1  0  0  0  0
 13 14  1  0  0  0  0
 14 15  1  0  0  0  0
 16 17  4  0  0  0  0
 16 21  4  0  0  0  0
 17 18  4  0  0  0  0
 18 19  4  0  0  0  0
 19 20  4  0  0  0  0
 20 21  4  0  0  0  0
 22 23  1  0  0  0  0
 22 24  1  0  0  0  0
 23 24  1  0  0  0  0
M  END
>  <Name_Molregno>
632147

>  <Dopamine transporter>
5.86

>  <Norepinephrine transporter>
7.66

>  <Serotonin transporter>
7.72

$$$$
632148
  Marvin  02231216192D 0   1.00000     0.00000     0

 25 28  0  0  1  0  0  0  0  0999 V2000
   -2.9689   -0.3829    0.0000 O   0  0  0  0  0  0  0  0  0
   -3.6834   -0.7954    0.0000 C   0  0  0  0  0  0  0  0  0
   -3.6834   -1.6204    0.0000 C   0  0  0  0  0  0  0  0  0
   -3.2709   -2.3348    0.0000 C   0  0  0  0  0  0  0  0  0
   -4.0959   -2.3348    0.0000 C   0  0  0  0  0  0  0  0  0
   -2.9689    0.4421    0.0000 C   0  0  0  0  0  0  0  0  0
   -3.6834    0.8546    0.0000 C   0  0  0  0  0  0  0  0  0
   -3.6834    1.6796    0.0000 C   0  0  0  0  0  0  0  0  0
   -2.9689    2.0921    0.0000 C   0  0  0  0  0  0  0  0  0
   -2.2545    1.6796    0.0000 C   0  0  0  0  0  0  0  0  0
   -2.2545    0.8546    0.0000 C   0  0  0  0  0  0  0  0  0
   -1.5400    0.4421    0.0000 C   0  0  0  0  0  0  0  0  0
   -0.8255    0.8546    0.0000 C   0  0  0  0  0  0  0  0  0
   -0.1111    0.4421    0.0000 N   0  0  0  0  0  0  0  0  0
    0.6034    0.8546    0.0000 C   0  0  0  0  0  0  0  0  0
    1.3179    0.4421    0.0000 C   0  0  0  0  0  0  0  0  0
    1.3179   -0.3829    0.0000 N   0  0  0  0  0  0  0  0  0
    0.6034   -0.7954    0.0000 C   0  0  0  0  0  0  0  0  0
   -0.1111   -0.3829    0.0000 C   0  0  0  0  0  0  0  0  0
   -0.8255    1.6796    0.0000 C   0  0  0  0  0  0  0  0  0
   -1.5400    2.0921    0.0000 C   0  0  0  0  0  0  0  0  0
   -1.5400    2.9171    0.0000 C   0  0  0  0  0  0  0  0  0
   -0.8255    3.3296    0.0000 C   0  0  0  0  0  0  0  0  0
   -0.1111    2.9171    0.0000 C   0  0  0  0  0  0  0  0  0
   -0.1111    2.0921    0.0000 C   0  0  0  0  0  0  0  0  0
  1  2  1  0  0  0  0
  1  6  1  0  0  0  0
  2  3  1  0  0  0  0
  3  4  1  0  0  0  0
  3  5  1  0  0  0  0
  4  5  1  0  0  0  0
  6  7  4  0  0  0  0
  6 11  4  0  0  0  0
  7  8  4  0  0  0  0
  8  9  4  0  0  0  0
  9 10  4  0  0  0  0
 10 11  4  0  0  0  0
 11 12  1  0  0  0  0
 12 13  1  0  0  0  0
 13 14  1  0  0  0  0
 13 20  1  0  0  0  0
 14 15  1  0  0  0  0
 14 19  1  0  0  0  0
 15 16  1  0  0  0  0
 16 17  1  0  0  0  0
 17 18  1  0  0  0  0
 18 19  1  0  0  0  0
 20 21  4  0  0  0  0
 20 25  4  0  0  0  0
 21 22  4  0  0  0  0
 22 23  4  0  0  0  0
 23 24  4  0  0  0  0
 24 25  4  0  0  0  0
M  END
>  <Name_Molregno>
632148

>  <Dopamine transporter>
5.85

>  <Norepinephrine transporter>
7.6

>  <Serotonin transporter>
7.72

$$$$
632149
  Marvin  02231216192D 0   1.00000     0.00000     0

 23 26  0  0  1  0  0  0  0  0999 V2000
   -0.5561   -0.7472    0.0000 O   0  0  0  0  0  0  0  0  0
    0.2285   -0.4923    0.0000 C   0  0  0  0  0  0  0  0  0
    0.2285    0.3327    0.0000 C   0  0  0  0  0  0  0  0  0
   -0.5561    0.5877    0.0000 C   0  0  0  0  0  0  0  0  0
   -1.0410   -0.0798    0.0000 C   0  0  0  0  0  0  0  0  0
    0.9430    0.7452    0.0000 C   0  0  0  0  0  0  0  0  0
    1.6575    0.3327    0.0000 C   0  0  0  0  0  0  0  0  0
    1.6575   -0.4923    0.0000 C   0  0  0  0  0  0  0  0  0
    0.9430   -0.9048    0.0000 C   0  0  0  0  0  0  0  0  0
    0.9430   -1.7298    0.0000 C   0  0  0  0  0  0  0  0  0
    1.6575   -2.1423    0.0000 C   0  0  0  0  0  0  0  0  0
    1.6575   -2.9673    0.0000 N   0  0  0  0  0  0  0  0  0
    2.3719   -3.3798    0.0000 C   0  0  0  0  0  0  0  0  0
    2.3719   -4.2048    0.0000 C   0  0  0  0  0  0  0  0  0
    1.6575   -4.6173    0.0000 N   0  0  0  0  0  0  0  0  0
    0.9430   -4.2048    0.0000 C   0  0  0  0  0  0  0  0  0
    0.9430   -3.3798    0.0000 C   0  0  0  0  0  0  0  0  0
    2.3719   -1.7298    0.0000 C   0  0  0  0  0  0  0  0  0
    2.3719   -0.9048    0.0000 C   0  0  0  0  0  0  0  0  0
    3.0864   -0.4923    0.0000 C   0  0  0  0  0  0  0  0  0
    3.8009   -0.9048    0.0000 C   0  0  0  0  0  0  0  0  0
    3.8009   -1.7298    0.0000 C   0  0  0  0  0  0  0  0  0
    3.0864   -2.1423    0.0000 C   0  0  0  0  0  0  0  0  0
  1  2  1  0  0  0  0
  1  5  1  0  0  0  0
  2  3  4  0  0  0  0
  2  9  4  0  0  0  0
  3  4  1  0  0  0  0
  3  6  4  0  0  0  0
  4  5  1  0  0  0  0
  6  7  4  0  0  0  0
  7  8  4  0  0  0  0
  8  9  4  0  0  0  0
  9 10  1  0  0  0  0
 10 11  1  0  0  0  0
 11 12  1  0  0  0  0
 11 18  1  0  0  0  0
 12 13  1  0  0  0  0
 12 17  1  0  0  0  0
 13 14  1  0  0  0  0
 14 15  1  0  0  0  0
 15 16  1  0  0  0  0
 16 17  1  0  0  0  0
 18 19  4  0  0  0  0
 18 23  4  0  0  0  0
 19 20  4  0  0  0  0
 20 21  4  0  0  0  0
 21 22  4  0  0  0  0
 22 23  4  0  0  0  0
M  END
>  <Name_Molregno>
632149

>  <Dopamine transporter>
5.5

>  <Norepinephrine transporter>
6.47

>  <Serotonin transporter>
8.1

$$$$
632222
  Marvin  02231216192D 0   1.00000     0.00000     0

 23 25  0  0  1  0  0  0  0  0999 V2000
    3.9312    3.4750    0.0000 F   0  0  0  0  0  0  0  0  0
    3.9312    2.6500    0.0000 C   0  0  0  0  0  0  0  0  0
    4.6457    2.2375    0.0000 C   0  0  0  0  0  0  0  0  0
    4.6457    1.4125    0.0000 C   0  0  0  0  0  0  0  0  0
    3.9312    1.0000    0.0000 C   0  0  0  0  0  0  0  0  0
    3.2167    1.4125    0.0000 C   0  0  0  0  0  0  0  0  0
    2.5023    1.0000    0.0000 C   0  0  0  0  0  0  0  0  0
    2.5023    0.1750    0.0000 C   0  0  0  0  0  0  0  0  0
    1.7878   -0.2375    0.0000 N   0  0  0  0  0  0  0  0  0
    1.7878   -1.0625    0.0000 C   0  0  0  0  0  0  0  0  0
    1.0733   -1.4750    0.0000 C   0  0  0  0  0  0  0  0  0
    0.3588   -1.0625    0.0000 N   0  0  0  0  0  0  0  0  0
    0.3588   -0.2375    0.0000 C   0  0  0  0  0  0  0  0  0
    1.0733    0.1750    0.0000 C   0  0  0  0  0  0  0  0  0
    3.2167   -0.2375    0.0000 C   0  0  0  0  0  0  0  0  0
    3.9312    0.1750    0.0000 C   0  0  0  0  0  0  0  0  0
    4.6457   -0.2375    0.0000 C   0  0  0  0  0  0  0  0  0
    4.6457   -1.0625    0.0000 C   0  0  0  0  0  0  0  0  0
    3.9312   -1.4750    0.0000 C   0  0  0  0  0  0  0  0  0
    3.2167   -1.0625    0.0000 C   0  0  0  0  0  0  0  0  0
    3.2167    2.2375    0.0000 C   0  0  0  0  0  0  0  0  0
    2.5023    2.6500    0.0000 O   0  0  0  0  0  0  0  0  0
    1.7878    2.2375    0.0000 C   0  0  0  0  0  0  0  0  0
  1  2  1  0  0  0  0
  2  3  4  0  0  0  0
  2 21  4  0  0  0  0
  3  4  4  0  0  0  0
  4  5  4  0  0  0  0
  5  6  4  0  0  0  0
  6  7  1  0  0  0  0
  6 21  4  0  0  0  0
  7  8  1  0  0  0  0
  8  9  1  0  0  0  0
  8 15  1  0  0  0  0
  9 10  1  0  0  0  0
  9 14  1  0  0  0  0
 10 11  1  0  0  0  0
 11 12  1  0  0  0  0
 12 13  1  0  0  0  0
 13 14  1  0  0  0  0
 15 16  4  0  0  0  0
 15 20  4  0  0  0  0
 16 17  4  0  0  0  0
 17 18  4  0  0  0  0
 18 19  4  0  0  0  0
 19 20  4  0  0  0  0
 21 22  1  0  0  0  0
 22 23  1  0  0  0  0
M  END
>  <Name_Molregno>
632222

>  <Dopamine transporter>
5.17

>  <Norepinephrine transporter>
7.08

>  <Serotonin transporter>
8.7

$$$$
632223
  Marvin  02231216192D 0   1.00000     0.00000     0

 23 25  0  0  1  0  0  0  0  0999 V2000
    1.6863    1.7047    0.0000 F   0  0  0  0  0  0  0  0  0
    1.2014    1.0372    0.0000 C   0  0  0  0  0  0  0  0  0
    1.9159    0.6247    0.0000 C   0  0  0  0  0  0  0  0  0
    1.9159   -0.2003    0.0000 C   0  0  0  0  0  0  0  0  0
    1.2014   -0.6128    0.0000 C   0  0  0  0  0  0  0  0  0
    0.4869   -0.2003    0.0000 C   0  0  0  0  0  0  0  0  0
   -0.2276   -0.6128    0.0000 O   0  0  0  0  0  0  0  0  0
   -0.2276   -1.4378    0.0000 C   0  0  0  0  0  0  0  0  0
    0.4869    0.6247    0.0000 C   0  0  0  0  0  0  0  0  0
   -0.2276    1.0372    0.0000 C   0  0  0  0  0  0  0  0  0
   -0.2276    1.8622    0.0000 C   0  0  0  0  0  0  0  0  0
   -0.9420    2.2747    0.0000 N   0  0  0  0  0  0  0  0  0
   -1.6565    1.8622    0.0000 C   0  0  0  0  0  0  0  0  0
   -2.3710    2.2747    0.0000 C   0  0  0  0  0  0  0  0  0
   -2.3710    3.0997    0.0000 N   0  0  0  0  0  0  0  0  0
   -1.6565    3.5122    0.0000 C   0  0  0  0  0  0  0  0  0
   -0.9420    3.0997    0.0000 C   0  0  0  0  0  0  0  0  0
    0.4869    2.2747    0.0000 C   0  0  0  0  0  0  0  0  0
    0.4869    3.0997    0.0000 C   0  0  0  0  0  0  0  0  0
    1.2014    3.5122    0.0000 C   0  0  0  0  0  0  0  0  0
    1.9159    3.0997    0.0000 C   0  0  0  0  0  0  0  0  0
    1.9159    2.2747    0.0000 C   0  0  0  0  0  0  0  0  0
    1.2014    1.8622    0.0000 C   0  0  0  0  0  0  0  0  0
  1  2  1  0  0  0  0
  2  3  4  0  0  0  0
  2  9  4  0  0  0  0
  3  4  4  0  0  0  0
  4  5  4  0  0  0  0
  5  6  4  0  0  0  0
  6  7  1  0  0  0  0
  6  9  4  0  0  0  0
  7  8  1  0  0  0  0
  9 10  1  0  0  0  0
 10 11  1  0  0  0  0
 11 12  1  0  0  0  0
 11 18  1  0  0  0  0
 12 13  1  0  0  0  0
 12 17  1  0  0  0  0
 13 14  1  0  0  0  0
 14 15  1  0  0  0  0
 15 16  1  0  0  0  0
 16 17  1  0  0  0  0
 18 19  4  0  0  0  0
 18 23  4  0  0  0  0
 19 20  4  0  0  0  0
 20 21  4  0  0  0  0
 21 22  4  0  0  0  0
 22 23  4  0  0  0  0
M  END
>  <Name_Molregno>
632223

>  <Dopamine transporter>
5.63

>  <Norepinephrine transporter>
7.57

>  <Serotonin transporter>
8.05

$$$$
632224
  Marvin  02231216192D 0   1.00000     0.00000     0

 25 27  0  0  1  0  0  0  0  0999 V2000
    1.3258    2.1587    0.0000 F   0  0  0  0  0  0  0  0  0
    0.8409    1.4912    0.0000 C   0  0  0  0  0  0  0  0  0
    1.5554    1.0787    0.0000 C   0  0  0  0  0  0  0  0  0
    1.5554    0.2537    0.0000 C   0  0  0  0  0  0  0  0  0
    0.8409   -0.1588    0.0000 C   0  0  0  0  0  0  0  0  0
    0.1265    0.2537    0.0000 C   0  0  0  0  0  0  0  0  0
   -0.5880   -0.1588    0.0000 O   0  0  0  0  0  0  0  0  0
   -0.5880   -0.9838    0.0000 C   0  0  0  0  0  0  0  0  0
   -1.3025   -1.3963    0.0000 F   0  0  0  0  0  0  0  0  0
    0.1265   -1.3963    0.0000 F   0  0  0  0  0  0  0  0  0
    0.1265    1.0787    0.0000 C   0  0  0  0  0  0  0  0  0
   -0.5880    1.4912    0.0000 C   0  0  0  0  0  0  0  0  0
   -0.5880    2.3162    0.0000 C   0  0  0  0  0  0  0  0  0
   -1.3025    2.7287    0.0000 N   0  0  0  0  0  0  0  0  0
   -2.0170    2.3162    0.0000 C   0  0  0  0  0  0  0  0  0
   -2.7314    2.7287    0.0000 C   0  0  0  0  0  0  0  0  0
   -2.7314    3.5537    0.0000 N   0  0  0  0  0  0  0  0  0
   -2.0170    3.9662    0.0000 C   0  0  0  0  0  0  0  0  0
   -1.3025    3.5537    0.0000 C   0  0  0  0  0  0  0  0  0
    0.1265    2.7287    0.0000 C   0  0  0  0  0  0  0  0  0
    0.1265    3.5537    0.0000 C   0  0  0  0  0  0  0  0  0
    0.8409    3.9662    0.0000 C   0  0  0  0  0  0  0  0  0
    1.5554    3.5537    0.0000 C   0  0  0  0  0  0  0  0  0
    1.5554    2.7287    0.0000 C   0  0  0  0  0  0  0  0  0
    0.8409    2.3162    0.0000 C   0  0  0  0  0  0  0  0  0
  1  2  1  0  0  0  0
  2  3  4  0  0  0  0
  2 11  4  0  0  0  0
  3  4  4  0  0  0  0
  4  5  4  0  0  0  0
  5  6  4  0  0  0  0
  6  7  1  0  0  0  0
  6 11  4  0  0  0  0
  7  8  1  0  0  0  0
  8  9  1  0  0  0  0
  8 10  1  0  0  0  0
 11 12  1  0  0  0  0
 12 13  1  0  0  0  0
 13 14  1  0  0  0  0
 13 20  1  0  0  0  0
 14 15  1  0  0  0  0
 14 19  1  0  0  0  0
 15 16  1  0  0  0  0
 16 17  1  0  0  0  0
 17 18  1  0  0  0  0
 18 19  1  0  0  0  0
 20 21  4  0  0  0  0
 20 25  4  0  0  0  0
 21 22  4  0  0  0  0
 22 23  4  0  0  0  0
 23 24  4  0  0  0  0
 24 25  4  0  0  0  0
M  END
>  <Name_Molregno>
632224

>  <Dopamine transporter>
5.5

>  <Norepinephrine transporter>
7.24

>  <Serotonin transporter>
7.72

$$$$
632225
  Marvin  02231216192D 0   1.00000     0.00000     0

 23 25  0  0  1  0  0  0  0  0999 V2000
   -3.0203    1.8847    0.0000 F   0  0  0  0  0  0  0  0  0
   -3.0203    1.0597    0.0000 C   0  0  0  0  0  0  0  0  0
   -3.7348    0.6472    0.0000 C   0  0  0  0  0  0  0  0  0
   -3.7348   -0.1778    0.0000 C   0  0  0  0  0  0  0  0  0
   -3.0203   -0.5903    0.0000 C   0  0  0  0  0  0  0  0  0
   -2.3058   -0.1778    0.0000 C   0  0  0  0  0  0  0  0  0
   -2.3058    0.6472    0.0000 C   0  0  0  0  0  0  0  0  0
   -1.5914    1.0597    0.0000 C   0  0  0  0  0  0  0  0  0
   -1.5914    1.8847    0.0000 N   0  0  0  0  0  0  0  0  0
   -2.3058    2.2972    0.0000 C   0  0  0  0  0  0  0  0  0
   -2.3058    3.1222    0.0000 C   0  0  0  0  0  0  0  0  0
   -1.5914    3.5347    0.0000 N   0  0  0  0  0  0  0  0  0
   -0.8769    3.1222    0.0000 C   0  0  0  0  0  0  0  0  0
   -0.8769    2.2972    0.0000 C   0  0  0  0  0  0  0  0  0
   -0.8769    0.6472    0.0000 C   0  0  0  0  0  0  0  0  0
   -0.1624    1.0597    0.0000 C   0  0  0  0  0  0  0  0  0
   -0.1624    1.8847    0.0000 C   0  0  0  0  0  0  0  0  0
    0.5521    2.2972    0.0000 C   0  0  0  0  0  0  0  0  0
    1.2665    1.8847    0.0000 C   0  0  0  0  0  0  0  0  0
    1.2665    1.0597    0.0000 C   0  0  0  0  0  0  0  0  0
    0.5521    0.6472    0.0000 C   0  0  0  0  0  0  0  0  0
    0.5521   -0.1778    0.0000 O   0  0  0  0  0  0  0  0  0
    1.2665   -0.5903    0.0000 C   0  0  0  0  0  0  0  0  0
  1  2  1  0  0  0  0
  2  3  4  0  0  0  0
  2  7  4  0  0  0  0
  3  4  4  0  0  0  0
  4  5  4  0  0  0  0
  5  6  4  0  0  0  0
  6  7  4  0  0  0  0
  7  8  1  0  0  0  0
  8  9  1  0  0  0  0
  8 15  1  0  0  0  0
  9 10  1  0  0  0  0
  9 14  1  0  0  0  0
 10 11  1  0  0  0  0
 11 12  1  0  0  0  0
 12 13  1  0  0  0  0
 13 14  1  0  0  0  0
 15 16  1  0  0  0  0
 16 17  4  0  0  0  0
 16 21  4  0  0  0  0
 17 18  4  0  0  0  0
 18 19  4  0  0  0  0
 19 20  4  0  0  0  0
 20 21  4  0  0  0  0
 21 22  1  0  0  0  0
 22 23  1  0  0  0  0
M  END
>  <Name_Molregno>
632225

>  <Dopamine transporter>
5

>  <Norepinephrine transporter>
7.01

>  <Serotonin transporter>
8

$$$$
632226
  Marvin  02231216192D 0   1.00000     0.00000     0

 23 25  0  0  1  0  0  0  0  0999 V2000
    4.5538    1.2587    0.0000 F   0  0  0  0  0  0  0  0  0
    4.5538    0.4337    0.0000 C   0  0  0  0  0  0  0  0  0
    3.8394    0.0212    0.0000 C   0  0  0  0  0  0  0  0  0
    3.8394   -0.8038    0.0000 C   0  0  0  0  0  0  0  0  0
    4.5538   -1.2163    0.0000 C   0  0  0  0  0  0  0  0  0
    5.2683   -0.8038    0.0000 C   0  0  0  0  0  0  0  0  0
    5.2683    0.0212    0.0000 C   0  0  0  0  0  0  0  0  0
    3.1249   -1.2163    0.0000 C   0  0  0  0  0  0  0  0  0
    3.1249   -2.0413    0.0000 N   0  0  0  0  0  0  0  0  0
    3.8394   -2.4538    0.0000 C   0  0  0  0  0  0  0  0  0
    3.8394   -3.2788    0.0000 C   0  0  0  0  0  0  0  0  0
    3.1249   -3.6913    0.0000 N   0  0  0  0  0  0  0  0  0
    2.4104   -3.2788    0.0000 C   0  0  0  0  0  0  0  0  0
    2.4104   -2.4538    0.0000 C   0  0  0  0  0  0  0  0  0
    2.4104   -0.8038    0.0000 C   0  0  0  0  0  0  0  0  0
    1.6960   -1.2163    0.0000 C   0  0  0  0  0  0  0  0  0
    1.6960   -2.0413    0.0000 C   0  0  0  0  0  0  0  0  0
    0.9815   -2.4538    0.0000 C   0  0  0  0  0  0  0  0  0
    0.2670   -2.0413    0.0000 C   0  0  0  0  0  0  0  0  0
    0.2670   -1.2163    0.0000 C   0  0  0  0  0  0  0  0  0
    0.9815   -0.8038    0.0000 C   0  0  0  0  0  0  0  0  0
    0.9815    0.0212    0.0000 O   0  0  0  0  0  0  0  0  0
    0.2670    0.4337    0.0000 C   0  0  0  0  0  0  0  0  0
  1  2  1  0  0  0  0
  2  3  4  0  0  0  0
  2  7  4  0  0  0  0
  3  4  4  0  0  0  0
  4  5  4  0  0  0  0
  4  8  1  0  0  0  0
  5  6  4  0  0  0  0
  6  7  4  0  0  0  0
  8  9  1  0  0  0  0
  8 15  1  0  0  0  0
  9 10  1  0  0  0  0
  9 14  1  0  0  0  0
 10 11  1  0  0  0  0
 11 12  1  0  0  0  0
 12 13  1  0  0  0  0
 13 14  1  0  0  0  0
 15 16  1  0  0  0  0
 16 17  4  0  0  0  0
 16 21  4  0  0  0  0
 17 18  4  0  0  0  0
 18 19  4  0  0  0  0
 19 20  4  0  0  0  0
 20 21  4  0  0  0  0
 21 22  1  0  0  0  0
 22 23  1  0  0  0  0
M  END
>  <Name_Molregno>
632226

>  <Dopamine transporter>
5.39

>  <Norepinephrine transporter>
7.52

>  <Serotonin transporter>
8.1

$$$$
632227
  Marvin  02231216192D 0   1.00000     0.00000     0

 23 25  0  0  1  0  0  0  0  0999 V2000
    3.5911    3.6656    0.0000 F   0  0  0  0  0  0  0  0  0
    3.5911    2.8406    0.0000 C   0  0  0  0  0  0  0  0  0
    4.3055    2.4281    0.0000 C   0  0  0  0  0  0  0  0  0
    4.3055    1.6031    0.0000 C   0  0  0  0  0  0  0  0  0
    3.5911    1.1906    0.0000 C   0  0  0  0  0  0  0  0  0
    2.8766    1.6031    0.0000 C   0  0  0  0  0  0  0  0  0
    2.8766    2.4281    0.0000 C   0  0  0  0  0  0  0  0  0
    3.5911    0.3656    0.0000 C   0  0  0  0  0  0  0  0  0
    4.3055   -0.0469    0.0000 N   0  0  0  0  0  0  0  0  0
    5.0200    0.3656    0.0000 C   0  0  0  0  0  0  0  0  0
    5.7345   -0.0469    0.0000 C   0  0  0  0  0  0  0  0  0
    5.7345   -0.8719    0.0000 N   0  0  0  0  0  0  0  0  0
    5.0200   -1.2844    0.0000 C   0  0  0  0  0  0  0  0  0
    4.3055   -0.8719    0.0000 C   0  0  0  0  0  0  0  0  0
    2.8766   -0.0469    0.0000 C   0  0  0  0  0  0  0  0  0
    2.8766   -0.8719    0.0000 C   0  0  0  0  0  0  0  0  0
    3.5911   -1.2844    0.0000 C   0  0  0  0  0  0  0  0  0
    3.5911   -2.1094    0.0000 C   0  0  0  0  0  0  0  0  0
    2.8766   -2.5219    0.0000 C   0  0  0  0  0  0  0  0  0
    2.1621   -2.1094    0.0000 C   0  0  0  0  0  0  0  0  0
    2.1621   -1.2844    0.0000 C   0  0  0  0  0  0  0  0  0
    1.4477   -0.8719    0.0000 O   0  0  0  0  0  0  0  0  0
    0.7332   -1.2844    0.0000 C   0  0  0  0  0  0  0  0  0
  1  2  1  0  0  0  0
  2  3  4  0  0  0  0
  2  7  4  0  0  0  0
  3  4  4  0  0  0  0
  4  5  4  0  0  0  0
  5  6  4  0  0  0  0
  5  8  1  0  0  0  0
  6  7  4  0  0  0  0
  8  9  1  0  0  0  0
  8 15  1  0  0  0  0
  9 10  1  0  0  0  0
  9 14  1  0  0  0  0
 10 11  1  0  0  0  0
 11 12  1  0  0  0  0
 12 13  1  0  0  0  0
 13 14  1  0  0  0  0
 15 16  1  0  0  0  0
 16 17  4  0  0  0  0
 16 21  4  0  0  0  0
 17 18  4  0  0  0  0
 18 19  4  0  0  0  0
 19 20  4  0  0  0  0
 20 21  4  0  0  0  0
 21 22  1  0  0  0  0
 22 23  1  0  0  0  0
M  END
>  <Name_Molregno>
632227

>  <Dopamine transporter>
5.31

>  <Norepinephrine transporter>
7

>  <Serotonin transporter>
8.1

$$$$
632289
  Marvin  02231216192D 0   1.00000     0.00000     0

 25 27  0  0  1  0  0  0  0  0999 V2000
    1.8227    2.0995    0.0000 F   0  0  0  0  0  0  0  0  0
    1.8227    1.2745    0.0000 C   0  0  0  0  0  0  0  0  0
    2.5371    0.8620    0.0000 C   0  0  0  0  0  0  0  0  0
    2.5371    0.0370    0.0000 C   0  0  0  0  0  0  0  0  0
    1.8227   -0.3755    0.0000 C   0  0  0  0  0  0  0  0  0
    1.1082    0.0370    0.0000 C   0  0  0  0  0  0  0  0  0
    1.1082    0.8620    0.0000 C   0  0  0  0  0  0  0  0  0
    0.3937    1.2745    0.0000 C   0  0  0  0  0  0  0  0  0
   -0.3207    0.8620    0.0000 N   0  0  0  0  0  0  0  0  0
   -0.3207    0.0370    0.0000 C   0  0  0  0  0  0  0  0  0
   -1.0352   -0.3755    0.0000 C   0  0  0  0  0  0  0  0  0
   -1.7497    0.0370    0.0000 N   0  0  0  0  0  0  0  0  0
   -1.7497    0.8620    0.0000 C   0  0  0  0  0  0  0  0  0
   -1.0352    1.2745    0.0000 C   0  0  0  0  0  0  0  0  0
    0.3937    2.0995    0.0000 C   0  0  0  0  0  0  0  0  0
   -0.3207    2.5120    0.0000 C   0  0  0  0  0  0  0  0  0
   -1.0352    2.0995    0.0000 C   0  0  0  0  0  0  0  0  0
   -1.7497    2.5120    0.0000 C   0  0  0  0  0  0  0  0  0
   -1.7497    3.3370    0.0000 C   0  0  0  0  0  0  0  0  0
   -1.0352    3.7495    0.0000 C   0  0  0  0  0  0  0  0  0
   -0.3207    3.3370    0.0000 C   0  0  0  0  0  0  0  0  0
    0.3937    3.7495    0.0000 O   0  0  0  0  0  0  0  0  0
    1.1082    3.3370    0.0000 C   0  0  0  0  0  0  0  0  0
    1.8227    3.7495    0.0000 F   0  0  0  0  0  0  0  0  0
    1.1082    2.5120    0.0000 F   0  0  0  0  0  0  0  0  0
  1  2  1  0  0  0  0
  2  3  4  0  0  0  0
  2  7  4  0  0  0  0
  3  4  4  0  0  0  0
  4  5  4  0  0  0  0
  5  6  4  0  0  0  0
  6  7  4  0  0  0  0
  7  8  1  0  0  0  0
  8  9  1  0  0  0  0
  8 15  1  0  0  0  0
  9 10  1  0  0  0  0
  9 14  1  0  0  0  0
 10 11  1  0  0  0  0
 11 12  1  0  0  0  0
 12 13  1  0  0  0  0
 13 14  1  0  0  0  0
 15 16  1  0  0  0  0
 16 17  4  0  0  0  0
 16 21  4  0  0  0  0
 17 18  4  0  0  0  0
 18 19  4  0  0  0  0
 19 20  4  0  0  0  0
 20 21  4  0  0  0  0
 21 22  1  0  0  0  0
 22 23  1  0  0  0  0
 23 24  1  0  0  0  0
 23 25  1  0  0  0  0
M  END
>  <Name_Molregno>
632289

>  <Dopamine transporter>
5

>  <Norepinephrine transporter>
7.34

>  <Serotonin transporter>
7.77

$$$$
632290
  Marvin  02231216192D 0   1.00000     0.00000     0

 25 27  0  0  1  0  0  0  0  0999 V2000
    0.3705    0.4041    0.0000 F   0  0  0  0  0  0  0  0  0
    0.3705   -0.4209    0.0000 C   0  0  0  0  0  0  0  0  0
    1.0849   -0.8334    0.0000 C   0  0  0  0  0  0  0  0  0
    1.0849   -1.6584    0.0000 C   0  0  0  0  0  0  0  0  0
    0.3705   -2.0709    0.0000 C   0  0  0  0  0  0  0  0  0
   -0.3440   -1.6584    0.0000 C   0  0  0  0  0  0  0  0  0
   -0.3440   -0.8334    0.0000 C   0  0  0  0  0  0  0  0  0
    1.7994   -2.0709    0.0000 C   0  0  0  0  0  0  0  0  0
    2.5139   -1.6584    0.0000 N   0  0  0  0  0  0  0  0  0
    2.5139   -0.8334    0.0000 C   0  0  0  0  0  0  0  0  0
    3.2284   -0.4209    0.0000 C   0  0  0  0  0  0  0  0  0
    3.9428   -0.8334    0.0000 N   0  0  0  0  0  0  0  0  0
    3.9428   -1.6584    0.0000 C   0  0  0  0  0  0  0  0  0
    3.2284   -2.0709    0.0000 C   0  0  0  0  0  0  0  0  0
    1.7994   -2.8959    0.0000 C   0  0  0  0  0  0  0  0  0
    2.5139   -3.3084    0.0000 C   0  0  0  0  0  0  0  0  0
    3.2284   -2.8959    0.0000 C   0  0  0  0  0  0  0  0  0
    3.9428   -3.3084    0.0000 C   0  0  0  0  0  0  0  0  0
    3.9428   -4.1334    0.0000 C   0  0  0  0  0  0  0  0  0
    3.2284   -4.5459    0.0000 C   0  0  0  0  0  0  0  0  0
    2.5139   -4.1334    0.0000 C   0  0  0  0  0  0  0  0  0
    1.7994   -4.5459    0.0000 O   0  0  0  0  0  0  0  0  0
    1.0849   -4.1334    0.0000 C   0  0  0  0  0  0  0  0  0
    0.3705   -4.5459    0.0000 F   0  0  0  0  0  0  0  0  0
    1.0849   -3.3084    0.0000 F   0  0  0  0  0  0  0  0  0
  1  2  1  0  0  0  0
  2  3  4  0  0  0  0
  2  7  4  0  0  0  0
  3  4  4  0  0  0  0
  4  5  4  0  0  0  0
  4  8  1  0  0  0  0
  5  6  4  0  0  0  0
  6  7  4  0  0  0  0
  8  9  1  0  0  0  0
  8 15  1  0  0  0  0
  9 10  1  0  0  0  0
  9 14  1  0  0  0  0
 10 11  1  0  0  0  0
 11 12  1  0  0  0  0
 12 13  1  0  0  0  0
 13 14  1  0  0  0  0
 15 16  1  0  0  0  0
 16 17  4  0  0  0  0
 16 21  4  0  0  0  0
 17 18  4  0  0  0  0
 18 19  4  0  0  0  0
 19 20  4  0  0  0  0
 20 21  4  0  0  0  0
 21 22  1  0  0  0  0
 22 23  1  0  0  0  0
 23 24  1  0  0  0  0
 23 25  1  0  0  0  0
M  END
>  <Name_Molregno>
632290

>  <Dopamine transporter>
5.46

>  <Norepinephrine transporter>
7.59

>  <Serotonin transporter>
7.92

$$$$
632291
  Marvin  02231216192D 0   1.00000     0.00000     0

 25 27  0  0  1  0  0  0  0  0999 V2000
    2.2863    0.5390    0.0000 F   0  0  0  0  0  0  0  0  0
    2.2863   -0.2860    0.0000 C   0  0  0  0  0  0  0  0  0
    3.0007   -0.6985    0.0000 C   0  0  0  0  0  0  0  0  0
    3.0007   -1.5235    0.0000 C   0  0  0  0  0  0  0  0  0
    2.2863   -1.9360    0.0000 C   0  0  0  0  0  0  0  0  0
    1.5718   -1.5235    0.0000 C   0  0  0  0  0  0  0  0  0
    1.5718   -0.6985    0.0000 C   0  0  0  0  0  0  0  0  0
    2.2863   -2.7610    0.0000 C   0  0  0  0  0  0  0  0  0
    3.0007   -3.1735    0.0000 N   0  0  0  0  0  0  0  0  0
    3.7152   -2.7610    0.0000 C   0  0  0  0  0  0  0  0  0
    4.4297   -3.1735    0.0000 C   0  0  0  0  0  0  0  0  0
    4.4297   -3.9985    0.0000 N   0  0  0  0  0  0  0  0  0
    3.7152   -4.4110    0.0000 C   0  0  0  0  0  0  0  0  0
    3.0007   -3.9985    0.0000 C   0  0  0  0  0  0  0  0  0
    1.5718   -3.1735    0.0000 C   0  0  0  0  0  0  0  0  0
    1.5718   -3.9985    0.0000 C   0  0  0  0  0  0  0  0  0
    2.2863   -4.4110    0.0000 C   0  0  0  0  0  0  0  0  0
    2.2863   -5.2360    0.0000 C   0  0  0  0  0  0  0  0  0
    1.5718   -5.6485    0.0000 C   0  0  0  0  0  0  0  0  0
    0.8573   -5.2360    0.0000 C   0  0  0  0  0  0  0  0  0
    0.8573   -4.4110    0.0000 C   0  0  0  0  0  0  0  0  0
    0.1429   -3.9985    0.0000 O   0  0  0  0  0  0  0  0  0
    0.1429   -3.1735    0.0000 C   0  0  0  0  0  0  0  0  0
   -0.5716   -2.7610    0.0000 F   0  0  0  0  0  0  0  0  0
    0.8573   -2.7610    0.0000 F   0  0  0  0  0  0  0  0  0
  1  2  1  0  0  0  0
  2  3  4  0  0  0  0
  2  7  4  0  0  0  0
  3  4  4  0  0  0  0
  4  5  4  0  0  0  0
  5  6  4  0  0  0  0
  5  8  1  0  0  0  0
  6  7  4  0  0  0  0
  8  9  1  0  0  0  0
  8 15  1  0  0  0  0
  9 10  1  0  0  0  0
  9 14  1  0  0  0  0
 10 11  1  0  0  0  0
 11 12  1  0  0  0  0
 12 13  1  0  0  0  0
 13 14  1  0  0  0  0
 15 16  1  0  0  0  0
 16 17  4  0  0  0  0
 16 21  4  0  0  0  0
 17 18  4  0  0  0  0
 18 19  4  0  0  0  0
 19 20  4  0  0  0  0
 20 21  4  0  0  0  0
 21 22  1  0  0  0  0
 22 23  1  0  0  0  0
 23 24  1  0  0  0  0
 23 25  1  0  0  0  0
M  END
>  <Name_Molregno>
632291

>  <Dopamine transporter>
5.75

>  <Norepinephrine transporter>
7.4

>  <Serotonin transporter>
8.05

$$$$
632293
  Marvin  02231216192D 0   1.00000     0.00000     0

 26 28  0  0  1  0  0  0  0  0999 V2000
    0.3622    0.7790    0.0000 F   0  0  0  0  0  0  0  0  0
    0.3622   -0.0460    0.0000 C   0  0  0  0  0  0  0  0  0
    1.0766   -0.4585    0.0000 C   0  0  0  0  0  0  0  0  0
    1.0766   -1.2835    0.0000 C   0  0  0  0  0  0  0  0  0
    0.3622   -1.6960    0.0000 C   0  0  0  0  0  0  0  0  0
   -0.3523   -1.2835    0.0000 C   0  0  0  0  0  0  0  0  0
   -0.3523   -0.4585    0.0000 C   0  0  0  0  0  0  0  0  0
    1.7911   -1.6960    0.0000 C   0  0  0  0  0  0  0  0  0
    2.5056   -1.2835    0.0000 N   0  0  0  0  0  0  0  0  0
    2.5056   -0.4585    0.0000 C   0  0  0  0  0  0  0  0  0
    3.2200   -0.0460    0.0000 C   0  0  0  0  0  0  0  0  0
    3.9345   -0.4585    0.0000 N   0  0  0  0  0  0  0  0  0
    3.9345   -1.2835    0.0000 C   0  0  0  0  0  0  0  0  0
    3.2200   -1.6960    0.0000 C   0  0  0  0  0  0  0  0  0
    1.7911   -2.5210    0.0000 C   0  0  0  0  0  0  0  0  0
    2.5056   -2.9335    0.0000 C   0  0  0  0  0  0  0  0  0
    3.2200   -2.5210    0.0000 C   0  0  0  0  0  0  0  0  0
    3.9345   -2.9335    0.0000 C   0  0  0  0  0  0  0  0  0
    3.9345   -3.7585    0.0000 C   0  0  0  0  0  0  0  0  0
    3.2200   -4.1710    0.0000 C   0  0  0  0  0  0  0  0  0
    2.5056   -3.7585    0.0000 C   0  0  0  0  0  0  0  0  0
    1.7911   -4.1710    0.0000 O   0  0  0  0  0  0  0  0  0
    1.7911   -4.9960    0.0000 C   0  0  0  0  0  0  0  0  0
    1.7911   -5.8210    0.0000 F   0  0  0  0  0  0  0  0  0
    0.9661   -4.9960    0.0000 F   0  0  0  0  0  0  0  0  0
    2.6161   -4.9960    0.0000 F   0  0  0  0  0  0  0  0  0
  1  2  1  0  0  0  0
  2  3  4  0  0  0  0
  2  7  4  0  0  0  0
  3  4  4  0  0  0  0
  4  5  4  0  0  0  0
  4  8  1  0  0  0  0
  5  6  4  0  0  0  0
  6  7  4  0  0  0  0
  8  9  1  0  0  0  0
  8 15  1  0  0  0  0
  9 10  1  0  0  0  0
  9 14  1  0  0  0  0
 10 11  1  0  0  0  0
 11 12  1  0  0  0  0
 12 13  1  0  0  0  0
 13 14  1  0  0  0  0
 15 16  1  0  0  0  0
 16 17  4  0  0  0  0
 16 21  4  0  0  0  0
 17 18  4  0  0  0  0
 18 19  4  0  0  0  0
 19 20  4  0  0  0  0
 20 21  4  0  0  0  0
 21 22  1  0  0  0  0
 22 23  1  0  0  0  0
 23 24  1  0  0  0  0
 23 25  1  0  0  0  0
 23 26  1  0  0  0  0
M  END
>  <Name_Molregno>
632293

>  <Dopamine transporter>
5.31

>  <Norepinephrine transporter>
7.52

>  <Serotonin transporter>
7.8

$$$$
650116
  Marvin  02231216192D 0   1.00000     0.00000     0

 19 21  0  0  1  0  0  0  0  0999 V2000
   -1.0469   -3.3086    0.0000 Cl  0  0  0  0  0  0  0  0  0
   -0.2219   -3.3086    0.0000 C   0  0  0  0  0  0  0  0  0
    0.1906   -2.5941    0.0000 C   0  0  0  0  0  0  0  0  0
    1.0156   -2.5941    0.0000 C   0  0  0  0  0  0  0  0  0
    1.4281   -3.3086    0.0000 C   0  0  0  0  0  0  0  0  0
    1.0156   -4.0230    0.0000 C   0  0  0  0  0  0  0  0  0
    0.1906   -4.0230    0.0000 C   0  0  0  0  0  0  0  0  0
   -0.2219   -4.7375    0.0000 Cl  0  0  0  0  0  0  0  0  0
    1.4281   -1.8796    0.0000 C   0  0  0  0  0  0  0  0  0
    0.7137   -1.4671    0.0000 C   0  0  0  0  0  0  0  0  0
    1.4281   -1.0546    0.0000 C   0  0  0  0  0  0  0  0  0
    2.1426   -0.6421    0.0000 C   0  0  0  0  0  0  0  0  0
    2.8571   -1.0546    0.0000 N   0  0  0  0  0  0  0  0  0
    2.8571   -1.8796    0.0000 C   0  0  0  0  0  0  0  0  0
    2.1426   -2.2921    0.0000 C   0  0  0  0  0  0  0  0  0
    2.1426   -3.1171    0.0000 F   0  0  0  0  0  0  0  0  0
    1.0156   -0.3401    0.0000 C   0  0  0  0  0  0  0  0  0
    1.4281    0.3743    0.0000 O   0  0  0  0  0  0  0  0  0
    1.0156    1.0888    0.0000 C   0  0  0  0  0  0  0  0  0
  1  2  1  0  0  0  0
  2  3  4  0  0  0  0
  2  7  4  0  0  0  0
  3  4  4  0  0  0  0
  4  5  4  0  0  0  0
  4  9  1  0  0  0  0
  5  6  4  0  0  0  0
  6  7  4  0  0  0  0
  7  8  1  0  0  0  0
  9 10  1  0  0  0  0
  9 11  1  0  0  0  0
  9 15  1  0  0  0  0
 10 11  1  0  0  0  0
 11 12  1  0  0  0  0
 11 17  1  0  0  0  0
 12 13  1  0  0  0  0
 13 14  1  0  0  0  0
 14 15  1  0  0  0  0
 15 16  1  0  0  0  0
 17 18  1  0  0  0  0
 18 19  1  0  0  0  0
M  END
>  <Name_Molregno>
650116

>  <Dopamine transporter>
7

>  <Norepinephrine transporter>
7.15

>  <Serotonin transporter>
8.35

$$$$
650218
  Marvin  02231216192D 0   1.00000     0.00000     0

 20 22  0  0  1  0  0  0  0  0999 V2000
   -0.2476   -2.4899    0.0000 Cl  0  0  0  0  0  0  0  0  0
    0.5774   -2.4899    0.0000 C   0  0  0  0  0  0  0  0  0
    0.9899   -1.7754    0.0000 C   0  0  0  0  0  0  0  0  0
    1.8149   -1.7754    0.0000 C   0  0  0  0  0  0  0  0  0
    2.2274   -2.4899    0.0000 C   0  0  0  0  0  0  0  0  0
    1.8149   -3.2044    0.0000 C   0  0  0  0  0  0  0  0  0
    0.9899   -3.2044    0.0000 C   0  0  0  0  0  0  0  0  0
    0.5774   -3.9189    0.0000 Cl  0  0  0  0  0  0  0  0  0
    2.2274   -1.0610    0.0000 C   0  0  0  0  0  0  0  0  0
    1.5129   -0.6485    0.0000 C   0  0  0  0  0  0  0  0  0
    2.2274   -0.2360    0.0000 C   0  0  0  0  0  0  0  0  0
    2.9419    0.1765    0.0000 C   0  0  0  0  0  0  0  0  0
    3.6563   -0.2360    0.0000 N   0  0  0  0  0  0  0  0  0
    3.6563   -1.0610    0.0000 C   0  0  0  0  0  0  0  0  0
    2.9419   -1.4735    0.0000 C   0  0  0  0  0  0  0  0  0
    2.9419   -2.2985    0.0000 O   0  0  0  0  0  0  0  0  0
    3.6563   -2.7110    0.0000 C   0  0  0  0  0  0  0  0  0
    1.8149    0.4785    0.0000 C   0  0  0  0  0  0  0  0  0
    2.2274    1.1930    0.0000 O   0  0  0  0  0  0  0  0  0
    1.8149    1.9074    0.0000 C   0  0  0  0  0  0  0  0  0
  1  2  1  0  0  0  0
  2  3  4  0  0  0  0
  2  7  4  0  0  0  0
  3  4  4  0  0  0  0
  4  5  4  0  0  0  0
  4  9  1  0  0  0  0
  5  6  4  0  0  0  0
  6  7  4  0  0  0  0
  7  8  1  0  0  0  0
  9 10  1  0  0  0  0
  9 11  1  0  0  0  0
  9 15  1  0  0  0  0
 10 11  1  0  0  0  0
 11 12  1  0  0  0  0
 11 18  1  0  0  0  0
 12 13  1  0  0  0  0
 13 14  1  0  0  0  0
 14 15  1  0  0  0  0
 15 16  1  0  0  0  0
 16 17  1  0  0  0  0
 18 19  1  0  0  0  0
 19 20  1  0  0  0  0
M  END
>  <Name_Molregno>
650218

>  <Dopamine transporter>
6.35

>  <Norepinephrine transporter>
5.85

>  <Serotonin transporter>
6.8

$$$$
650222
  Marvin  02231216192D 0   1.00000     0.00000     0

 19 21  0  0  1  0  0  0  0  0999 V2000
    0.0435   -2.5306    0.0000 Cl  0  0  0  0  0  0  0  0  0
    0.8685   -2.5306    0.0000 C   0  0  0  0  0  0  0  0  0
    1.2810   -1.8161    0.0000 C   0  0  0  0  0  0  0  0  0
    2.1060   -1.8161    0.0000 C   0  0  0  0  0  0  0  0  0
    2.5185   -2.5306    0.0000 C   0  0  0  0  0  0  0  0  0
    2.1060   -3.2450    0.0000 C   0  0  0  0  0  0  0  0  0
    1.2810   -3.2450    0.0000 C   0  0  0  0  0  0  0  0  0
    0.8685   -3.9595    0.0000 Cl  0  0  0  0  0  0  0  0  0
    2.5185   -1.1016    0.0000 C   0  0  0  0  0  0  0  0  0
    1.8040   -0.6891    0.0000 C   0  0  0  0  0  0  0  0  0
    2.5185   -0.2766    0.0000 C   0  0  0  0  0  0  0  0  0
    3.2330    0.1359    0.0000 C   0  0  0  0  0  0  0  0  0
    3.9474   -0.2766    0.0000 N   0  0  0  0  0  0  0  0  0
    3.9474   -1.1016    0.0000 C   0  0  0  0  0  0  0  0  0
    3.2330   -1.5141    0.0000 C   0  0  0  0  0  0  0  0  0
    4.6619    0.1359    0.0000 C   0  0  0  0  0  0  0  0  0
    2.1060    0.4379    0.0000 C   0  0  0  0  0  0  0  0  0
    1.2810    0.4379    0.0000 O   0  0  0  0  0  0  0  0  0
    0.8685    1.1523    0.0000 C   0  0  0  0  0  0  0  0  0
  1  2  1  0  0  0  0
  2  3  4  0  0  0  0
  2  7  4  0  0  0  0
  3  4  4  0  0  0  0
  4  5  4  0  0  0  0
  4  9  1  0  0  0  0
  5  6  4  0  0  0  0
  6  7  4  0  0  0  0
  7  8  1  0  0  0  0
  9 10  1  0  0  0  0
  9 11  1  0  0  0  0
  9 15  1  0  0  0  0
 10 11  1  0  0  0  0
 11 12  1  0  0  0  0
 11 17  1  0  0  0  0
 12 13  1  0  0  0  0
 13 14  1  0  0  0  0
 13 16  1  0  0  0  0
 14 15  1  0  0  0  0
 17 18  1  0  0  0  0
 18 19  1  0  0  0  0
M  END
>  <Name_Molregno>
650222

>  <Dopamine transporter>
7.5

>  <Norepinephrine transporter>
6.1

>  <Serotonin transporter>
7.9

$$$$
650404
  Marvin  02231216192D 0   1.00000     0.00000     0

 22 24  0  0  1  0  0  0  0  0999 V2000
    3.7692    2.2877    0.0000 Cl  0  0  0  0  0  0  0  0  0
    3.0548    1.8752    0.0000 C   0  0  0  0  0  0  0  0  0
    3.0548    1.0502    0.0000 C   0  0  0  0  0  0  0  0  0
    2.3403    0.6377    0.0000 C   0  0  0  0  0  0  0  0  0
    1.6258    1.0502    0.0000 C   0  0  0  0  0  0  0  0  0
    1.6258    1.8752    0.0000 C   0  0  0  0  0  0  0  0  0
    2.3403    2.2877    0.0000 C   0  0  0  0  0  0  0  0  0
    2.3403    3.1127    0.0000 Cl  0  0  0  0  0  0  0  0  0
    2.3403   -0.1873    0.0000 C   0  0  0  0  0  0  0  0  0
    3.1653   -0.1873    0.0000 C   0  0  0  0  0  0  0  0  0
    2.7528   -0.9018    0.0000 C   0  0  0  0  0  0  0  0  0
    2.3403   -1.6162    0.0000 C   0  0  0  0  0  0  0  0  0
    1.5153   -1.6162    0.0000 N   0  0  0  0  0  0  0  0  0
    1.1028   -0.9018    0.0000 C   0  0  0  0  0  0  0  0  0
    1.5153   -0.1873    0.0000 C   0  0  0  0  0  0  0  0  0
    3.4673   -1.3143    0.0000 C   0  0  0  0  0  0  0  0  0
    4.1817   -0.9018    0.0000 O   0  0  0  0  0  0  0  0  0
    4.8962   -1.3143    0.0000 C   0  0  0  0  0  0  0  0  0
    5.6107   -0.9018    0.0000 C   0  0  0  0  0  0  0  0  0
    6.3251   -0.4893    0.0000 F   0  0  0  0  0  0  0  0  0
    6.0232   -1.6162    0.0000 F   0  0  0  0  0  0  0  0  0
    5.1982   -0.1873    0.0000 F   0  0  0  0  0  0  0  0  0
  1  2  1  0  0  0  0
  2  3  4  0  0  0  0
  2  7  4  0  0  0  0
  3  4  4  0  0  0  0
  4  5  4  0  0  0  0
  4  9  1  0  0  0  0
  5  6  4  0  0  0  0
  6  7  4  0  0  0  0
  7  8  1  0  0  0  0
  9 10  1  0  0  0  0
  9 11  1  0  0  0  0
  9 15  1  0  0  0  0
 10 11  1  0  0  0  0
 11 12  1  0  0  0  0
 11 16  1  0  0  0  0
 12 13  1  0  0  0  0
 13 14  1  0  0  0  0
 14 15  1  0  0  0  0
 16 17  1  0  0  0  0
 17 18  1  0  0  0  0
 18 19  1  0  0  0  0
 19 20  1  0  0  0  0
 19 21  1  0  0  0  0
 19 22  1  0  0  0  0
M  END
>  <Name_Molregno>
650404

>  <Dopamine transporter>
7.4

>  <Norepinephrine transporter>
7.1

>  <Serotonin transporter>
8.2

$$$$
650598
  Marvin  02231216192D 0   1.00000     0.00000     0

 19 21  0  0  1  0  0  0  0  0999 V2000
    1.2572   -0.8019    0.0000 Cl  0  0  0  0  0  0  0  0  0
    1.6697   -0.0874    0.0000 C   0  0  0  0  0  0  0  0  0
    1.2572    0.6270    0.0000 C   0  0  0  0  0  0  0  0  0
    1.6697    1.3415    0.0000 C   0  0  0  0  0  0  0  0  0
    2.4947    1.3415    0.0000 C   0  0  0  0  0  0  0  0  0
    2.9072    0.6270    0.0000 C   0  0  0  0  0  0  0  0  0
    2.4947   -0.0874    0.0000 C   0  0  0  0  0  0  0  0  0
    2.9072   -0.8019    0.0000 Cl  0  0  0  0  0  0  0  0  0
    1.2572    2.0560    0.0000 C   0  0  0  0  0  0  0  0  0
    0.4322    2.0560    0.0000 C   0  0  0  0  0  0  0  0  0
    0.0197    2.7705    0.0000 C   0  0  0  0  0  0  0  0  0
    0.4322    3.4849    0.0000 N   0  0  0  0  0  0  0  0  0
    1.2572    3.4849    0.0000 C   0  0  0  0  0  0  0  0  0
    1.6697    2.7705    0.0000 C   0  0  0  0  0  0  0  0  0
    2.0822    3.4849    0.0000 C   0  0  0  0  0  0  0  0  0
    2.9072    3.4849    0.0000 C   0  0  0  0  0  0  0  0  0
    3.3197    2.7705    0.0000 C   0  0  0  0  0  0  0  0  0
    2.9072    2.0560    0.0000 O   0  0  0  0  0  0  0  0  0
    2.0822    2.0560    0.0000 C   0  0  0  0  0  0  0  0  0
  1  2  1  0  0  0  0
  2  3  4  0  0  0  0
  2  7  4  0  0  0  0
  3  4  4  0  0  0  0
  4  5  4  0  0  0  0
  4  9  1  0  0  0  0
  5  6  4  0  0  0  0
  6  7  4  0  0  0  0
  7  8  1  0  0  0  0
  9 10  1  0  0  0  0
  9 14  1  0  0  0  0
 10 11  1  0  0  0  0
 11 12  1  0  0  0  0
 12 13  1  0  0  0  0
 13 14  1  0  0  0  0
 14 15  1  0  0  0  0
 14 19  1  0  0  0  0
 15 16  1  0  0  0  0
 16 17  1  0  0  0  0
 17 18  1  0  0  0  0
 18 19  1  0  0  0  0
M  END
>  <Name_Molregno>
650598

>  <Dopamine transporter>
7.9

>  <Norepinephrine transporter>
8.4

>  <Serotonin transporter>
9.5

$$$$
650612
  Marvin  02231216192D 0   1.00000     0.00000     0

 21 23  0  0  1  0  0  0  0  0999 V2000
   -0.0887   -2.6991    0.0000 Cl  0  0  0  0  0  0  0  0  0
    0.7363   -2.6991    0.0000 C   0  0  0  0  0  0  0  0  0
    1.1488   -1.9847    0.0000 C   0  0  0  0  0  0  0  0  0
    1.9738   -1.9847    0.0000 C   0  0  0  0  0  0  0  0  0
    2.3863   -2.6991    0.0000 C   0  0  0  0  0  0  0  0  0
    1.9738   -3.4136    0.0000 C   0  0  0  0  0  0  0  0  0
    1.1488   -3.4136    0.0000 C   0  0  0  0  0  0  0  0  0
    0.7363   -4.1281    0.0000 Cl  0  0  0  0  0  0  0  0  0
    2.3863   -1.2702    0.0000 C   0  0  0  0  0  0  0  0  0
    1.6718   -0.8577    0.0000 C   0  0  0  0  0  0  0  0  0
    2.3863   -0.4452    0.0000 C   0  0  0  0  0  0  0  0  0
    3.1007   -0.0327    0.0000 C   0  0  0  0  0  0  0  0  0
    3.8152   -0.4452    0.0000 N   0  0  0  0  0  0  0  0  0
    3.8152   -1.2702    0.0000 C   0  0  0  0  0  0  0  0  0
    3.1007   -1.6827    0.0000 C   0  0  0  0  0  0  0  0  0
    4.5297   -0.0327    0.0000 C   0  0  0  0  0  0  0  0  0
    4.5297    0.7923    0.0000 C   0  0  0  0  0  0  0  0  0
    5.2442   -0.4452    0.0000 C   0  0  0  0  0  0  0  0  0
    1.9738    0.2693    0.0000 C   0  0  0  0  0  0  0  0  0
    1.1488    0.2693    0.0000 O   0  0  0  0  0  0  0  0  0
    0.7363    0.9838    0.0000 C   0  0  0  0  0  0  0  0  0
  1  2  1  0  0  0  0
  2  3  4  0  0  0  0
  2  7  4  0  0  0  0
  3  4  4  0  0  0  0
  4  5  4  0  0  0  0
  4  9  1  0  0  0  0
  5  6  4  0  0  0  0
  6  7  4  0  0  0  0
  7  8  1  0  0  0  0
  9 10  1  0  0  0  0
  9 11  1  0  0  0  0
  9 15  1  0  0  0  0
 10 11  1  0  0  0  0
 11 12  1  0  0  0  0
 11 19  1  0  0  0  0
 12 13  1  0  0  0  0
 13 14  1  0  0  0  0
 13 16  1  0  0  0  0
 14 15  1  0  0  0  0
 16 17  1  0  0  0  0
 16 18  1  0  0  0  0
 19 20  1  0  0  0  0
 20 21  1  0  0  0  0
M  END
>  <Name_Molregno>
650612

>  <Dopamine transporter>
5.9

>  <Norepinephrine transporter>
5.3

>  <Serotonin transporter>
6.2

$$$$
650837
  Marvin  02231216192D 0   1.00000     0.00000     0

 18 20  0  0  1  0  0  0  0  0999 V2000
    0.4881   -1.5345    0.0000 Cl  0  0  0  0  0  0  0  0  0
    1.3131   -1.5345    0.0000 C   0  0  0  0  0  0  0  0  0
    1.7256   -0.8200    0.0000 C   0  0  0  0  0  0  0  0  0
    2.5506   -0.8200    0.0000 C   0  0  0  0  0  0  0  0  0
    2.9631   -1.5345    0.0000 C   0  0  0  0  0  0  0  0  0
    2.5506   -2.2489    0.0000 C   0  0  0  0  0  0  0  0  0
    1.7256   -2.2489    0.0000 C   0  0  0  0  0  0  0  0  0
    1.3131   -2.9634    0.0000 Cl  0  0  0  0  0  0  0  0  0
    2.9631   -0.1055    0.0000 C   0  0  0  0  0  0  0  0  0
    2.9631    0.7195    0.0000 C   0  0  0  0  0  0  0  0  0
    3.6776    1.1320    0.0000 C   0  0  0  0  0  0  0  0  0
    4.3921    0.7195    0.0000 N   0  0  0  0  0  0  0  0  0
    4.3921   -0.1055    0.0000 C   0  0  0  0  0  0  0  0  0
    3.6776   -0.5180    0.0000 C   0  0  0  0  0  0  0  0  0
    2.2486    0.3070    0.0000 C   0  0  0  0  0  0  0  0  0
    1.4236    0.3070    0.0000 C   0  0  0  0  0  0  0  0  0
    1.0111    1.0215    0.0000 O   0  0  0  0  0  0  0  0  0
    0.1861    1.0215    0.0000 C   0  0  0  0  0  0  0  0  0
  1  2  1  0  0  0  0
  2  3  4  0  0  0  0
  2  7  4  0  0  0  0
  3  4  4  0  0  0  0
  4  5  4  0  0  0  0
  4  9  1  0  0  0  0
  5  6  4  0  0  0  0
  6  7  4  0  0  0  0
  7  8  1  0  0  0  0
  9 10  1  0  0  0  0
  9 14  1  0  0  0  0
  9 15  1  0  0  0  0
 10 11  1  0  0  0  0
 10 15  1  0  0  0  0
 11 12  1  0  0  0  0
 12 13  1  0  0  0  0
 13 14  1  0  0  0  0
 15 16  1  0  0  0  0
 16 17  1  0  0  0  0
 17 18  1  0  0  0  0
M  END
>  <Name_Molregno>
650837

>  <Dopamine transporter>
6.15

>  <Norepinephrine transporter>
6.1

>  <Serotonin transporter>
7.65

$$$$
650840
  Marvin  02231216192D 0   1.00000     0.00000     0

 20 22  0  0  1  0  0  0  0  0999 V2000
    0.8590   -1.1818    0.0000 Cl  0  0  0  0  0  0  0  0  0
    1.6840   -1.1818    0.0000 C   0  0  0  0  0  0  0  0  0
    2.0965   -0.4673    0.0000 C   0  0  0  0  0  0  0  0  0
    2.9215   -0.4673    0.0000 C   0  0  0  0  0  0  0  0  0
    3.3340   -1.1818    0.0000 C   0  0  0  0  0  0  0  0  0
    2.9215   -1.8963    0.0000 C   0  0  0  0  0  0  0  0  0
    2.0965   -1.8963    0.0000 C   0  0  0  0  0  0  0  0  0
    1.6840   -2.6107    0.0000 Cl  0  0  0  0  0  0  0  0  0
    3.3340    0.2471    0.0000 C   0  0  0  0  0  0  0  0  0
    2.6195    0.6596    0.0000 C   0  0  0  0  0  0  0  0  0
    3.3340    1.0721    0.0000 C   0  0  0  0  0  0  0  0  0
    4.0484    1.4846    0.0000 C   0  0  0  0  0  0  0  0  0
    4.7629    1.0721    0.0000 N   0  0  0  0  0  0  0  0  0
    4.7629    0.2471    0.0000 C   0  0  0  0  0  0  0  0  0
    4.0484   -0.1654    0.0000 C   0  0  0  0  0  0  0  0  0
    2.9215    1.7866    0.0000 C   0  0  0  0  0  0  0  0  0
    2.0965    1.7866    0.0000 O   0  0  0  0  0  0  0  0  0
    1.6840    2.5011    0.0000 C   0  0  0  0  0  0  0  0  0
    0.8590    2.5011    0.0000 C   0  0  0  0  0  0  0  0  0
    3.3340    2.5011    0.0000 O   0  0  0  0  0  0  0  0  0
  1  2  1  0  0  0  0
  2  3  4  0  0  0  0
  2  7  4  0  0  0  0
  3  4  4  0  0  0  0
  4  5  4  0  0  0  0
  4  9  1  0  0  0  0
  5  6  4  0  0  0  0
  6  7  4  0  0  0  0
  7  8  1  0  0  0  0
  9 10  1  0  0  0  0
  9 11  1  0  0  0  0
  9 15  1  0  0  0  0
 10 11  1  0  0  0  0
 11 12  1  0  0  0  0
 11 16  1  0  0  0  0
 12 13  1  0  0  0  0
 13 14  1  0  0  0  0
 14 15  1  0  0  0  0
 16 17  1  0  0  0  0
 16 20  2  0  0  0  0
 17 18  1  0  0  0  0
 18 19  1  0  0  0  0
M  END
>  <Name_Molregno>
650840

>  <Dopamine transporter>
8.3

>  <Norepinephrine transporter>
8.1

>  <Serotonin transporter>
7.8

$$$$
650841
  Marvin  02231216192D 0   1.00000     0.00000     0

 18 20  0  0  1  0  0  0  0  0999 V2000
    0.3400   -1.4498    0.0000 Cl  0  0  0  0  0  0  0  0  0
    1.1650   -1.4498    0.0000 C   0  0  0  0  0  0  0  0  0
    1.5775   -0.7353    0.0000 C   0  0  0  0  0  0  0  0  0
    2.4025   -0.7353    0.0000 C   0  0  0  0  0  0  0  0  0
    2.8150   -1.4498    0.0000 C   0  0  0  0  0  0  0  0  0
    2.4025   -2.1643    0.0000 C   0  0  0  0  0  0  0  0  0
    1.5775   -2.1643    0.0000 C   0  0  0  0  0  0  0  0  0
    1.1650   -2.8788    0.0000 Cl  0  0  0  0  0  0  0  0  0
    2.8150   -0.0209    0.0000 C   0  0  0  0  0  0  0  0  0
    2.1005    0.3916    0.0000 C   0  0  0  0  0  0  0  0  0
    2.8150    0.8041    0.0000 C   0  0  0  0  0  0  0  0  0
    3.5295    1.2166    0.0000 C   0  0  0  0  0  0  0  0  0
    4.2439    0.8041    0.0000 N   0  0  0  0  0  0  0  0  0
    4.2439   -0.0209    0.0000 C   0  0  0  0  0  0  0  0  0
    3.5295   -0.4334    0.0000 C   0  0  0  0  0  0  0  0  0
    2.4025    1.5186    0.0000 C   0  0  0  0  0  0  0  0  0
    2.8150    2.2331    0.0000 O   0  0  0  0  0  0  0  0  0
    1.5775    1.5186    0.0000 N   0  0  0  0  0  0  0  0  0
  1  2  1  0  0  0  0
  2  3  4  0  0  0  0
  2  7  4  0  0  0  0
  3  4  4  0  0  0  0
  4  5  4  0  0  0  0
  4  9  1  0  0  0  0
  5  6  4  0  0  0  0
  6  7  4  0  0  0  0
  7  8  1  0  0  0  0
  9 10  1  0  0  0  0
  9 11  1  0  0  0  0
  9 15  1  0  0  0  0
 10 11  1  0  0  0  0
 11 12  1  0  0  0  0
 11 16  1  0  0  0  0
 12 13  1  0  0  0  0
 13 14  1  0  0  0  0
 14 15  1  0  0  0  0
 16 17  2  0  0  0  0
 16 18  1  0  0  0  0
M  END
>  <Name_Molregno>
650841

>  <Dopamine transporter>
6.6

>  <Norepinephrine transporter>
6.1

>  <Serotonin transporter>
7

$$$$
650842
  Marvin  02231216192D 0   1.00000     0.00000     0

 21 23  0  0  1  0  0  0  0  0999 V2000
    0.9634   -1.4496    0.0000 Cl  0  0  0  0  0  0  0  0  0
    1.7884   -1.4496    0.0000 C   0  0  0  0  0  0  0  0  0
    2.2009   -0.7352    0.0000 C   0  0  0  0  0  0  0  0  0
    3.0259   -0.7352    0.0000 C   0  0  0  0  0  0  0  0  0
    3.4384   -1.4496    0.0000 C   0  0  0  0  0  0  0  0  0
    3.0259   -2.1641    0.0000 C   0  0  0  0  0  0  0  0  0
    2.2009   -2.1641    0.0000 C   0  0  0  0  0  0  0  0  0
    1.7884   -2.8786    0.0000 Cl  0  0  0  0  0  0  0  0  0
    3.4384   -0.0207    0.0000 C   0  0  0  0  0  0  0  0  0
    2.7239    0.3918    0.0000 C   0  0  0  0  0  0  0  0  0
    3.4384    0.8043    0.0000 C   0  0  0  0  0  0  0  0  0
    4.1529    1.2168    0.0000 C   0  0  0  0  0  0  0  0  0
    4.8674    0.8043    0.0000 N   0  0  0  0  0  0  0  0  0
    4.8674   -0.0207    0.0000 C   0  0  0  0  0  0  0  0  0
    4.1529   -0.4332    0.0000 C   0  0  0  0  0  0  0  0  0
    3.0259    1.5188    0.0000 C   0  0  0  0  0  0  0  0  0
    2.2009    1.5188    0.0000 O   0  0  0  0  0  0  0  0  0
    3.4384    2.2333    0.0000 N   0  0  0  0  0  0  0  0  0
    3.0259    2.9477    0.0000 C   0  0  0  0  0  0  0  0  0
    2.6134    3.6622    0.0000 C   0  0  0  0  0  0  0  0  0
    2.2009    4.3767    0.0000 C   0  0  0  0  0  0  0  0  0
  1  2  1  0  0  0  0
  2  3  4  0  0  0  0
  2  7  4  0  0  0  0
  3  4  4  0  0  0  0
  4  5  4  0  0  0  0
  4  9  1  0  0  0  0
  5  6  4  0  0  0  0
  6  7  4  0  0  0  0
  7  8  1  0  0  0  0
  9 10  1  0  0  0  0
  9 11  1  0  0  0  0
  9 15  1  0  0  0  0
 10 11  1  0  0  0  0
 11 12  1  0  0  0  0
 11 16  1  0  0  0  0
 12 13  1  0  0  0  0
 13 14  1  0  0  0  0
 14 15  1  0  0  0  0
 16 17  2  0  0  0  0
 16 18  1  0  0  0  0
 18 19  1  0  0  0  0
 19 20  3  0  0  0  0
 20 21  1  0  0  0  0
M  END
>  <Name_Molregno>
650842

>  <Dopamine transporter>
6.8

>  <Norepinephrine transporter>
6.3

>  <Serotonin transporter>
7

$$$$
650843
  Marvin  02231216192D 0   1.00000     0.00000     0

 18 20  0  0  1  0  0  0  0  0999 V2000
    0.3400   -1.4498    0.0000 Cl  0  0  0  0  0  0  0  0  0
    1.1650   -1.4498    0.0000 C   0  0  0  0  0  0  0  0  0
    1.5775   -0.7353    0.0000 C   0  0  0  0  0  0  0  0  0
    2.4025   -0.7353    0.0000 C   0  0  0  0  0  0  0  0  0
    2.8150   -1.4498    0.0000 C   0  0  0  0  0  0  0  0  0
    2.4025   -2.1643    0.0000 C   0  0  0  0  0  0  0  0  0
    1.5775   -2.1643    0.0000 C   0  0  0  0  0  0  0  0  0
    1.1650   -2.8788    0.0000 Cl  0  0  0  0  0  0  0  0  0
    2.8150   -0.0209    0.0000 C   0  0  0  0  0  0  0  0  0
    2.1005    0.3916    0.0000 C   0  0  0  0  0  0  0  0  0
    2.8150    0.8041    0.0000 C   0  0  0  0  0  0  0  0  0
    3.5295    1.2166    0.0000 C   0  0  0  0  0  0  0  0  0
    4.2439    0.8041    0.0000 N   0  0  0  0  0  0  0  0  0
    4.2439   -0.0209    0.0000 C   0  0  0  0  0  0  0  0  0
    3.5295   -0.4334    0.0000 C   0  0  0  0  0  0  0  0  0
    2.4025    1.5186    0.0000 C   0  0  0  0  0  0  0  0  0
    2.8150    2.2331    0.0000 O   0  0  0  0  0  0  0  0  0
    1.5775    1.5186    0.0000 C   0  0  0  0  0  0  0  0  0
  1  2  1  0  0  0  0
  2  3  4  0  0  0  0
  2  7  4  0  0  0  0
  3  4  4  0  0  0  0
  4  5  4  0  0  0  0
  4  9  1  0  0  0  0
  5  6  4  0  0  0  0
  6  7  4  0  0  0  0
  7  8  1  0  0  0  0
  9 10  1  0  0  0  0
  9 11  1  0  0  0  0
  9 15  1  0  0  0  0
 10 11  1  0  0  0  0
 11 12  1  0  0  0  0
 11 16  1  0  0  0  0
 12 13  1  0  0  0  0
 13 14  1  0  0  0  0
 14 15  1  0  0  0  0
 16 17  2  0  0  0  0
 16 18  1  0  0  0  0
M  END
>  <Name_Molregno>
650843

>  <Dopamine transporter>
8.4

>  <Norepinephrine transporter>
7.8

>  <Serotonin transporter>
9

$$$$
650899
  Marvin  02231216192D 0   1.00000     0.00000     0

 17 19  0  0  1  0  0  0  0  0999 V2000
    1.5551   -2.8856    0.0000 Cl  0  0  0  0  0  0  0  0  0
    1.9676   -2.1711    0.0000 C   0  0  0  0  0  0  0  0  0
    1.5551   -1.4566    0.0000 C   0  0  0  0  0  0  0  0  0
    1.9676   -0.7422    0.0000 C   0  0  0  0  0  0  0  0  0
    2.7926   -0.7422    0.0000 C   0  0  0  0  0  0  0  0  0
    3.2051   -1.4566    0.0000 C   0  0  0  0  0  0  0  0  0
    2.7926   -2.1711    0.0000 C   0  0  0  0  0  0  0  0  0
    3.2051   -0.0277    0.0000 C   0  0  0  0  0  0  0  0  0
    2.4906    0.3848    0.0000 C   0  0  0  0  0  0  0  0  0
    3.2051    0.7973    0.0000 C   0  0  0  0  0  0  0  0  0
    3.9195    1.2098    0.0000 C   0  0  0  0  0  0  0  0  0
    4.6340    0.7973    0.0000 N   0  0  0  0  0  0  0  0  0
    4.6340   -0.0277    0.0000 C   0  0  0  0  0  0  0  0  0
    3.9195   -0.4402    0.0000 C   0  0  0  0  0  0  0  0  0
    2.7926    1.5118    0.0000 C   0  0  0  0  0  0  0  0  0
    3.2051    2.2262    0.0000 O   0  0  0  0  0  0  0  0  0
    2.7926    2.9407    0.0000 C   0  0  0  0  0  0  0  0  0
  1  2  1  0  0  0  0
  2  3  4  0  0  0  0
  2  7  4  0  0  0  0
  3  4  4  0  0  0  0
  4  5  4  0  0  0  0
  5  6  4  0  0  0  0
  5  8  1  0  0  0  0
  6  7  4  0  0  0  0
  8  9  1  0  0  0  0
  8 10  1  0  0  0  0
  8 14  1  0  0  0  0
  9 10  1  0  0  0  0
 10 11  1  0  0  0  0
 10 15  1  0  0  0  0
 11 12  1  0  0  0  0
 12 13  1  0  0  0  0
 13 14  1  0  0  0  0
 15 16  1  0  0  0  0
 16 17  1  0  0  0  0
M  END
>  <Name_Molregno>
650899

>  <Dopamine transporter>
6.6

>  <Norepinephrine transporter>
6.7

>  <Serotonin transporter>
7.8

$$$$
650900
  Marvin  02231216192D 0   1.00000     0.00000     0

 21 23  0  0  1  0  0  0  0  0999 V2000
   -2.6254   -2.9344    0.0000 F   0  0  0  0  0  0  0  0  0
   -3.0379   -2.2199    0.0000 C   0  0  0  0  0  0  0  0  0
   -2.3234   -1.8074    0.0000 F   0  0  0  0  0  0  0  0  0
   -3.7524   -2.6324    0.0000 F   0  0  0  0  0  0  0  0  0
   -3.4504   -1.5055    0.0000 O   0  0  0  0  0  0  0  0  0
   -3.0379   -0.7910    0.0000 C   0  0  0  0  0  0  0  0  0
   -3.4504   -0.0765    0.0000 C   0  0  0  0  0  0  0  0  0
   -3.0379    0.6380    0.0000 C   0  0  0  0  0  0  0  0  0
   -2.2129    0.6380    0.0000 C   0  0  0  0  0  0  0  0  0
   -1.8004   -0.0765    0.0000 C   0  0  0  0  0  0  0  0  0
   -2.2129   -0.7910    0.0000 C   0  0  0  0  0  0  0  0  0
   -1.8004    1.3524    0.0000 C   0  0  0  0  0  0  0  0  0
   -2.5149    1.7649    0.0000 C   0  0  0  0  0  0  0  0  0
   -1.8004    2.1774    0.0000 C   0  0  0  0  0  0  0  0  0
   -1.0859    2.5899    0.0000 C   0  0  0  0  0  0  0  0  0
   -0.3715    2.1774    0.0000 N   0  0  0  0  0  0  0  0  0
   -0.3715    1.3524    0.0000 C   0  0  0  0  0  0  0  0  0
   -1.0859    0.9399    0.0000 C   0  0  0  0  0  0  0  0  0
   -2.2129    2.8919    0.0000 C   0  0  0  0  0  0  0  0  0
   -1.8004    3.6064    0.0000 O   0  0  0  0  0  0  0  0  0
   -2.2129    4.3208    0.0000 C   0  0  0  0  0  0  0  0  0
  1  2  1  0  0  0  0
  2  3  1  0  0  0  0
  2  4  1  0  0  0  0
  2  5  1  0  0  0  0
  5  6  1  0  0  0  0
  6  7  4  0  0  0  0
  6 11  4  0  0  0  0
  7  8  4  0  0  0  0
  8  9  4  0  0  0  0
  9 10  4  0  0  0  0
  9 12  1  0  0  0  0
 10 11  4  0  0  0  0
 12 13  1  0  0  0  0
 12 14  1  0  0  0  0
 12 18  1  0  0  0  0
 13 14  1  0  0  0  0
 14 15  1  0  0  0  0
 14 19  1  0  0  0  0
 15 16  1  0  0  0  0
 16 17  1  0  0  0  0
 17 18  1  0  0  0  0
 19 20  1  0  0  0  0
 20 21  1  0  0  0  0
M  END
>  <Name_Molregno>
650900

>  <Dopamine transporter>
5.1

>  <Norepinephrine transporter>
5.5

>  <Serotonin transporter>
8.5

$$$$
650901
  Marvin  02231216192D 0   1.00000     0.00000     0

 18 20  0  0  1  0  0  0  0  0999 V2000
    0.3678   -1.4783    0.0000 Cl  0  0  0  0  0  0  0  0  0
    1.1928   -1.4783    0.0000 C   0  0  0  0  0  0  0  0  0
    1.6053   -0.7639    0.0000 C   0  0  0  0  0  0  0  0  0
    2.4303   -0.7639    0.0000 C   0  0  0  0  0  0  0  0  0
    2.8428   -1.4783    0.0000 C   0  0  0  0  0  0  0  0  0
    2.4303   -2.1928    0.0000 C   0  0  0  0  0  0  0  0  0
    1.6053   -2.1928    0.0000 C   0  0  0  0  0  0  0  0  0
    1.1928   -2.9073    0.0000 F   0  0  0  0  0  0  0  0  0
    2.8428   -0.0494    0.0000 C   0  0  0  0  0  0  0  0  0
    2.1283    0.3631    0.0000 C   0  0  0  0  0  0  0  0  0
    2.8428    0.7756    0.0000 C   0  0  0  0  0  0  0  0  0
    3.5572    1.1881    0.0000 C   0  0  0  0  0  0  0  0  0
    4.2717    0.7756    0.0000 N   0  0  0  0  0  0  0  0  0
    4.2717   -0.0494    0.0000 C   0  0  0  0  0  0  0  0  0
    3.5572   -0.4619    0.0000 C   0  0  0  0  0  0  0  0  0
    2.4303    1.4901    0.0000 C   0  0  0  0  0  0  0  0  0
    2.8428    2.2045    0.0000 O   0  0  0  0  0  0  0  0  0
    2.4303    2.9190    0.0000 C   0  0  0  0  0  0  0  0  0
  1  2  1  0  0  0  0
  2  3  4  0  0  0  0
  2  7  4  0  0  0  0
  3  4  4  0  0  0  0
  4  5  4  0  0  0  0
  4  9  1  0  0  0  0
  5  6  4  0  0  0  0
  6  7  4  0  0  0  0
  7  8  1  0  0  0  0
  9 10  1  0  0  0  0
  9 11  1  0  0  0  0
  9 15  1  0  0  0  0
 10 11  1  0  0  0  0
 11 12  1  0  0  0  0
 11 16  1  0  0  0  0
 12 13  1  0  0  0  0
 13 14  1  0  0  0  0
 14 15  1  0  0  0  0
 16 17  1  0  0  0  0
 17 18  1  0  0  0  0
M  END
>  <Name_Molregno>
650901

>  <Dopamine transporter>
6.8

>  <Norepinephrine transporter>
6.5

>  <Serotonin transporter>
8.8

$$$$
650902
  Marvin  02231216192D 0   1.00000     0.00000     0

 21 23  0  0  1  0  0  0  0  0999 V2000
    1.0599   -2.3893    0.0000 Cl  0  0  0  0  0  0  0  0  0
    1.4724   -1.6748    0.0000 C   0  0  0  0  0  0  0  0  0
    1.0599   -0.9603    0.0000 C   0  0  0  0  0  0  0  0  0
    1.4724   -0.2458    0.0000 C   0  0  0  0  0  0  0  0  0
    2.2974   -0.2458    0.0000 C   0  0  0  0  0  0  0  0  0
    2.7099   -0.9603    0.0000 C   0  0  0  0  0  0  0  0  0
    2.2974   -1.6748    0.0000 C   0  0  0  0  0  0  0  0  0
    2.7099   -2.3893    0.0000 C   0  0  0  0  0  0  0  0  0
    3.1224   -3.1037    0.0000 F   0  0  0  0  0  0  0  0  0
    3.4243   -1.9768    0.0000 F   0  0  0  0  0  0  0  0  0
    1.9954   -2.8018    0.0000 F   0  0  0  0  0  0  0  0  0
    2.7099    0.4686    0.0000 C   0  0  0  0  0  0  0  0  0
    1.9954    0.8811    0.0000 C   0  0  0  0  0  0  0  0  0
    2.7099    1.2936    0.0000 C   0  0  0  0  0  0  0  0  0
    3.4243    1.7061    0.0000 C   0  0  0  0  0  0  0  0  0
    4.1388    1.2936    0.0000 N   0  0  0  0  0  0  0  0  0
    4.1388    0.4686    0.0000 C   0  0  0  0  0  0  0  0  0
    3.4243    0.0561    0.0000 C   0  0  0  0  0  0  0  0  0
    2.2974    2.0081    0.0000 C   0  0  0  0  0  0  0  0  0
    2.7099    2.7226    0.0000 O   0  0  0  0  0  0  0  0  0
    2.2974    3.4370    0.0000 C   0  0  0  0  0  0  0  0  0
  1  2  1  0  0  0  0
  2  3  4  0  0  0  0
  2  7  4  0  0  0  0
  3  4  4  0  0  0  0
  4  5  4  0  0  0  0
  5  6  4  0  0  0  0
  5 12  1  0  0  0  0
  6  7  4  0  0  0  0
  7  8  1  0  0  0  0
  8  9  1  0  0  0  0
  8 10  1  0  0  0  0
  8 11  1  0  0  0  0
 12 13  1  0  0  0  0
 12 14  1  0  0  0  0
 12 18  1  0  0  0  0
 13 14  1  0  0  0  0
 14 15  1  0  0  0  0
 14 19  1  0  0  0  0
 15 16  1  0  0  0  0
 16 17  1  0  0  0  0
 17 18  1  0  0  0  0
 19 20  1  0  0  0  0
 20 21  1  0  0  0  0
M  END
>  <Name_Molregno>
650902

>  <Dopamine transporter>
5.5

>  <Norepinephrine transporter>
6.7

>  <Serotonin transporter>
7.8

$$$$
650903
  Marvin  02231216192D 0   1.00000     0.00000     0

 21 23  0  0  1  0  0  0  0  0999 V2000
    0.1821   -1.2766    0.0000 Cl  0  0  0  0  0  0  0  0  0
    1.0071   -1.2766    0.0000 C   0  0  0  0  0  0  0  0  0
    1.4196   -0.5622    0.0000 C   0  0  0  0  0  0  0  0  0
    2.2446   -0.5622    0.0000 C   0  0  0  0  0  0  0  0  0
    2.6571   -1.2766    0.0000 C   0  0  0  0  0  0  0  0  0
    2.2446   -1.9911    0.0000 C   0  0  0  0  0  0  0  0  0
    1.4196   -1.9911    0.0000 C   0  0  0  0  0  0  0  0  0
    1.0071   -2.7056    0.0000 C   0  0  0  0  0  0  0  0  0
    0.5946   -3.4200    0.0000 F   0  0  0  0  0  0  0  0  0
    1.7216   -3.1181    0.0000 F   0  0  0  0  0  0  0  0  0
    0.2927   -2.2931    0.0000 F   0  0  0  0  0  0  0  0  0
    2.6571    0.1523    0.0000 C   0  0  0  0  0  0  0  0  0
    1.9427    0.5648    0.0000 C   0  0  0  0  0  0  0  0  0
    2.6571    0.9773    0.0000 C   0  0  0  0  0  0  0  0  0
    3.3716    1.3898    0.0000 C   0  0  0  0  0  0  0  0  0
    4.0861    0.9773    0.0000 N   0  0  0  0  0  0  0  0  0
    4.0861    0.1523    0.0000 C   0  0  0  0  0  0  0  0  0
    3.3716   -0.2602    0.0000 C   0  0  0  0  0  0  0  0  0
    2.2446    1.6918    0.0000 C   0  0  0  0  0  0  0  0  0
    2.6571    2.4063    0.0000 O   0  0  0  0  0  0  0  0  0
    2.2446    3.1207    0.0000 C   0  0  0  0  0  0  0  0  0
  1  2  1  0  0  0  0
  2  3  4  0  0  0  0
  2  7  4  0  0  0  0
  3  4  4  0  0  0  0
  4  5  4  0  0  0  0
  4 12  1  0  0  0  0
  5  6  4  0  0  0  0
  6  7  4  0  0  0  0
  7  8  1  0  0  0  0
  8  9  1  0  0  0  0
  8 10  1  0  0  0  0
  8 11  1  0  0  0  0
 12 13  1  0  0  0  0
 12 14  1  0  0  0  0
 12 18  1  0  0  0  0
 13 14  1  0  0  0  0
 14 15  1  0  0  0  0
 14 19  1  0  0  0  0
 15 16  1  0  0  0  0
 16 17  1  0  0  0  0
 17 18  1  0  0  0  0
 19 20  1  0  0  0  0
 20 21  1  0  0  0  0
M  END
>  <Name_Molregno>
650903

>  <Dopamine transporter>
5.8

>  <Norepinephrine transporter>
6.9

>  <Serotonin transporter>
7.8

$$$$
650904
  Marvin  02231216192D 0   1.00000     0.00000     0

 19 21  0  0  1  0  0  0  0  0999 V2000
   -0.1576   -2.5574    0.0000 Cl  0  0  0  0  0  0  0  0  0
    0.6674   -2.5574    0.0000 C   0  0  0  0  0  0  0  0  0
    1.0799   -1.8430    0.0000 C   0  0  0  0  0  0  0  0  0
    1.9049   -1.8430    0.0000 C   0  0  0  0  0  0  0  0  0
    2.3174   -2.5574    0.0000 C   0  0  0  0  0  0  0  0  0
    1.9049   -3.2719    0.0000 C   0  0  0  0  0  0  0  0  0
    1.0799   -3.2719    0.0000 C   0  0  0  0  0  0  0  0  0
    0.6674   -3.9864    0.0000 Cl  0  0  0  0  0  0  0  0  0
    2.3174   -1.1285    0.0000 C   0  0  0  0  0  0  0  0  0
    1.6029   -0.7160    0.0000 C   0  0  0  0  0  0  0  0  0
    2.3174   -0.3035    0.0000 C   0  0  0  0  0  0  0  0  0
    3.0318    0.1090    0.0000 C   0  0  0  0  0  0  0  0  0
    3.7463   -0.3035    0.0000 N   0  0  0  0  0  0  0  0  0
    3.7463   -1.1285    0.0000 C   0  0  0  0  0  0  0  0  0
    3.0318   -1.5410    0.0000 C   0  0  0  0  0  0  0  0  0
    4.4608   -1.5410    0.0000 C   0  0  0  0  0  0  0  0  0
    1.9049    0.4110    0.0000 C   0  0  0  0  0  0  0  0  0
    2.3174    1.1254    0.0000 O   0  0  0  0  0  0  0  0  0
    1.9049    1.8399    0.0000 C   0  0  0  0  0  0  0  0  0
  1  2  1  0  0  0  0
  2  3  4  0  0  0  0
  2  7  4  0  0  0  0
  3  4  4  0  0  0  0
  4  5  4  0  0  0  0
  4  9  1  0  0  0  0
  5  6  4  0  0  0  0
  6  7  4  0  0  0  0
  7  8  1  0  0  0  0
  9 10  1  0  0  0  0
  9 11  1  0  0  0  0
  9 15  1  0  0  0  0
 10 11  1  0  0  0  0
 11 12  1  0  0  0  0
 11 17  1  0  0  0  0
 12 13  1  0  0  0  0
 13 14  1  0  0  0  0
 14 15  1  0  0  0  0
 14 16  1  0  0  0  0
 17 18  1  0  0  0  0
 18 19  1  0  0  0  0
M  END
>  <Name_Molregno>
650904

>  <Dopamine transporter>
7.4

>  <Norepinephrine transporter>
7.3

>  <Serotonin transporter>
8.1

$$$$
650983
  Marvin  02231216192D 0   1.00000     0.00000     0

 18 20  0  0  1  0  0  0  0  0999 V2000
    0.4881   -1.5345    0.0000 Cl  0  0  0  0  0  0  0  0  0
    1.3131   -1.5345    0.0000 C   0  0  0  0  0  0  0  0  0
    1.7256   -0.8200    0.0000 C   0  0  0  0  0  0  0  0  0
    2.5506   -0.8200    0.0000 C   0  0  0  0  0  0  0  0  0
    2.9631   -1.5345    0.0000 C   0  0  0  0  0  0  0  0  0
    2.5506   -2.2489    0.0000 C   0  0  0  0  0  0  0  0  0
    1.7256   -2.2489    0.0000 C   0  0  0  0  0  0  0  0  0
    1.3131   -2.9634    0.0000 Cl  0  0  0  0  0  0  0  0  0
    2.9631   -0.1055    0.0000 C   0  0  0  0  0  0  0  0  0
    2.9631    0.7195    0.0000 C   0  0  0  0  0  0  0  0  0
    3.6776    1.1320    0.0000 C   0  0  0  0  0  0  0  0  0
    4.3921    0.7195    0.0000 C   0  0  0  0  0  0  0  0  0
    4.3921   -0.1055    0.0000 N   0  0  0  0  0  0  0  0  0
    3.6776   -0.5180    0.0000 C   0  0  0  0  0  0  0  0  0
    2.2486    0.3070    0.0000 C   0  0  0  0  0  0  0  0  0
    1.4236    0.3070    0.0000 C   0  0  0  0  0  0  0  0  0
    1.0111    1.0215    0.0000 O   0  0  0  0  0  0  0  0  0
    0.1861    1.0215    0.0000 C   0  0  0  0  0  0  0  0  0
  1  2  1  0  0  0  0
  2  3  4  0  0  0  0
  2  7  4  0  0  0  0
  3  4  4  0  0  0  0
  4  5  4  0  0  0  0
  4  9  1  0  0  0  0
  5  6  4  0  0  0  0
  6  7  4  0  0  0  0
  7  8  1  0  0  0  0
  9 10  1  0  0  0  0
  9 14  1  0  0  0  0
  9 15  1  0  0  0  0
 10 11  1  0  0  0  0
 10 15  1  0  0  0  0
 11 12  1  0  0  0  0
 12 13  1  0  0  0  0
 13 14  1  0  0  0  0
 15 16  1  0  0  0  0
 16 17  1  0  0  0  0
 17 18  1  0  0  0  0
M  END
>  <Name_Molregno>
650983

>  <Dopamine transporter>
6.9

>  <Norepinephrine transporter>
7.2

>  <Serotonin transporter>
7.5

$$$$
685854
  Marvin  02231216192D 0   1.00000     0.00000     0

 24 26  0  0  1  0  0  0  0  0999 V2000
    6.1267   -4.5242    0.0000 F   0  0  0  0  0  0  0  0  0
    5.7149   -3.8093    0.0000 C   0  0  0  0  0  0  0  0  0
    4.8899   -3.8085    0.0000 C   0  0  0  0  0  0  0  0  0
    4.4781   -3.0936    0.0000 C   0  0  0  0  0  0  0  0  0
    4.8913   -2.3795    0.0000 C   0  0  0  0  0  0  0  0  0
    5.7163   -2.3803    0.0000 C   0  0  0  0  0  0  0  0  0
    6.1281   -3.0952    0.0000 C   0  0  0  0  0  0  0  0  0
    4.4795   -1.6646    0.0000 C   0  0  0  0  0  0  0  0  0
    4.3413   -0.8472    0.0000 C   0  0  0  0  0  0  0  0  0
    3.4125   -0.8627    0.0000 C   0  0  0  0  0  0  0  0  0
    2.8519   -0.4228    0.0000 N   0  0  0  0  0  0  0  0  0
    2.9916   -1.2359    0.0000 C   0  0  0  0  0  0  0  0  0
    2.4717   -1.9482    0.0000 C   0  0  0  0  0  0  0  0  0
    3.0920   -1.5713    0.0000 C   0  0  0  0  0  0  0  0  0
    3.9633   -1.2359    0.0000 C   0  0  0  0  0  0  0  0  0
    3.6831   -2.0119    0.0000 C   0  0  0  0  0  0  0  0  0
    4.2150   -2.6425    0.0000 O   0  0  0  0  0  0  0  0  0
    3.9348   -3.4185    0.0000 C   0  0  0  0  0  0  0  0  0
    2.8710   -2.1572    0.0000 O   0  0  0  0  0  0  0  0  0
    2.4293    0.2857    0.0000 C   0  0  0  0  0  0  0  0  0
    1.6043    0.2740    0.0000 C   0  0  0  0  0  0  0  0  0
    1.1817    0.9825    0.0000 C   0  0  0  0  0  0  0  0  0
    0.3568    0.9708    0.0000 C   0  0  0  0  0  0  0  0  0
   -0.0455    0.2505    0.0000 F   0  0  0  0  0  0  0  0  0
  1  2  1  0  0  0  0
  2  3  4  0  0  0  0
  2  7  4  0  0  0  0
  3  4  4  0  0  0  0
  4  5  4  0  0  0  0
  5  6  4  0  0  0  0
  5  8  1  0  0  0  0
  6  7  4  0  0  0  0
  8  9  1  0  0  0  0
  8 15  1  0  0  0  0
  9 10  1  0  0  0  0
 10 11  1  0  0  0  0
 10 14  1  0  0  0  0
 11 12  1  0  0  0  0
 11 20  1  0  0  0  0
 12 13  1  0  0  0  0
 12 15  1  0  0  0  0
 13 14  1  0  0  0  0
 15 16  1  0  0  0  0
 16 17  1  0  0  0  0
 16 19  2  0  0  0  0
 17 18  1  0  0  0  0
 20 21  1  0  0  0  0
 21 22  2  0  0  0  0
 22 23  1  0  0  0  0
 23 24  1  0  0  0  0
M  END
>  <Name_Molregno>
685854

>  <Dopamine transporter>
8.02

>  <Norepinephrine transporter>
5.58

>  <Serotonin transporter>
6.45

$$$$
685855
  Marvin  02231216192D 0   1.00000     0.00000     0

 24 26  0  0  1  0  0  0  0  0999 V2000
    6.1267   -4.5242    0.0000 Cl  0  0  0  0  0  0  0  0  0
    5.7149   -3.8093    0.0000 C   0  0  0  0  0  0  0  0  0
    4.8899   -3.8085    0.0000 C   0  0  0  0  0  0  0  0  0
    4.4781   -3.0936    0.0000 C   0  0  0  0  0  0  0  0  0
    4.8913   -2.3795    0.0000 C   0  0  0  0  0  0  0  0  0
    5.7163   -2.3803    0.0000 C   0  0  0  0  0  0  0  0  0
    6.1281   -3.0952    0.0000 C   0  0  0  0  0  0  0  0  0
    4.4795   -1.6646    0.0000 C   0  0  0  0  0  0  0  0  0
    4.3413   -0.8472    0.0000 C   0  0  0  0  0  0  0  0  0
    3.4125   -0.8627    0.0000 C   0  0  0  0  0  0  0  0  0
    2.8519   -0.4228    0.0000 N   0  0  0  0  0  0  0  0  0
    2.9916   -1.2359    0.0000 C   0  0  0  0  0  0  0  0  0
    2.4717   -1.9482    0.0000 C   0  0  0  0  0  0  0  0  0
    3.0920   -1.5713    0.0000 C   0  0  0  0  0  0  0  0  0
    3.9633   -1.2359    0.0000 C   0  0  0  0  0  0  0  0  0
    3.6831   -2.0119    0.0000 C   0  0  0  0  0  0  0  0  0
    4.2150   -2.6425    0.0000 O   0  0  0  0  0  0  0  0  0
    3.9348   -3.4185    0.0000 C   0  0  0  0  0  0  0  0  0
    2.8710   -2.1572    0.0000 O   0  0  0  0  0  0  0  0  0
    2.4293    0.2857    0.0000 C   0  0  0  0  0  0  0  0  0
    1.6043    0.2740    0.0000 C   0  0  0  0  0  0  0  0  0
    1.1817    0.9825    0.0000 C   0  0  0  0  0  0  0  0  0
    0.3568    0.9708    0.0000 C   0  0  0  0  0  0  0  0  0
   -0.0455    0.2505    0.0000 F   0  0  0  0  0  0  0  0  0
  1  2  1  0  0  0  0
  2  3  4  0  0  0  0
  2  7  4  0  0  0  0
  3  4  4  0  0  0  0
  4  5  4  0  0  0  0
  5  6  4  0  0  0  0
  5  8  1  0  0  0  0
  6  7  4  0  0  0  0
  8  9  1  0  0  0  0
  8 15  1  0  0  0  0
  9 10  1  0  0  0  0
 10 11  1  0  0  0  0
 10 14  1  0  0  0  0
 11 12  1  0  0  0  0
 11 20  1  0  0  0  0
 12 13  1  0  0  0  0
 12 15  1  0  0  0  0
 13 14  1  0  0  0  0
 15 16  1  0  0  0  0
 16 17  1  0  0  0  0
 16 19  2  0  0  0  0
 17 18  1  0  0  0  0
 20 21  1  0  0  0  0
 21 22  2  0  0  0  0
 22 23  1  0  0  0  0
 23 24  1  0  0  0  0
M  END
>  <Name_Molregno>
685855

>  <Dopamine transporter>
9.22

>  <Norepinephrine transporter>
6.85

>  <Serotonin transporter>
7.95

$$$$
685856
  Marvin  02231216192D 0   1.00000     0.00000     0

 24 26  0  0  1  0  0  0  0  0999 V2000
    6.1267   -4.5242    0.0000 Br  0  0  0  0  0  0  0  0  0
    5.7149   -3.8093    0.0000 C   0  0  0  0  0  0  0  0  0
    4.8899   -3.8085    0.0000 C   0  0  0  0  0  0  0  0  0
    4.4781   -3.0936    0.0000 C   0  0  0  0  0  0  0  0  0
    4.8913   -2.3795    0.0000 C   0  0  0  0  0  0  0  0  0
    5.7163   -2.3803    0.0000 C   0  0  0  0  0  0  0  0  0
    6.1281   -3.0952    0.0000 C   0  0  0  0  0  0  0  0  0
    4.4795   -1.6646    0.0000 C   0  0  0  0  0  0  0  0  0
    4.3413   -0.8472    0.0000 C   0  0  0  0  0  0  0  0  0
    3.4125   -0.8627    0.0000 C   0  0  0  0  0  0  0  0  0
    2.8519   -0.4228    0.0000 N   0  0  0  0  0  0  0  0  0
    2.9916   -1.2359    0.0000 C   0  0  0  0  0  0  0  0  0
    2.4717   -1.9482    0.0000 C   0  0  0  0  0  0  0  0  0
    3.0920   -1.5713    0.0000 C   0  0  0  0  0  0  0  0  0
    3.9633   -1.2359    0.0000 C   0  0  0  0  0  0  0  0  0
    3.6831   -2.0119    0.0000 C   0  0  0  0  0  0  0  0  0
    4.2150   -2.6425    0.0000 O   0  0  0  0  0  0  0  0  0
    3.9348   -3.4185    0.0000 C   0  0  0  0  0  0  0  0  0
    2.8710   -2.1572    0.0000 O   0  0  0  0  0  0  0  0  0
    2.4293    0.2857    0.0000 C   0  0  0  0  0  0  0  0  0
    1.6043    0.2740    0.0000 C   0  0  0  0  0  0  0  0  0
    1.1817    0.9825    0.0000 C   0  0  0  0  0  0  0  0  0
    0.3568    0.9708    0.0000 C   0  0  0  0  0  0  0  0  0
   -0.0455    0.2505    0.0000 F   0  0  0  0  0  0  0  0  0
  1  2  1  0  0  0  0
  2  3  4  0  0  0  0
  2  7  4  0  0  0  0
  3  4  4  0  0  0  0
  4  5  4  0  0  0  0
  5  6  4  0  0  0  0
  5  8  1  0  0  0  0
  6  7  4  0  0  0  0
  8  9  1  0  0  0  0
  8 15  1  0  0  0  0
  9 10  1  0  0  0  0
 10 11  1  0  0  0  0
 10 14  1  0  0  0  0
 11 12  1  0  0  0  0
 11 20  1  0  0  0  0
 12 13  1  0  0  0  0
 12 15  1  0  0  0  0
 13 14  1  0  0  0  0
 15 16  1  0  0  0  0
 16 17  1  0  0  0  0
 16 19  2  0  0  0  0
 17 18  1  0  0  0  0
 20 21  1  0  0  0  0
 21 22  2  0  0  0  0
 22 23  1  0  0  0  0
 23 24  1  0  0  0  0
M  END
>  <Name_Molregno>
685856

>  <Dopamine transporter>
9.4

>  <Norepinephrine transporter>
7.06

>  <Serotonin transporter>
8.07

$$$$
685909
  Marvin  02231216192D 0   1.00000     0.00000     0

 24 26  0  0  1  0  0  0  0  0999 V2000
    6.1267   -4.5242    0.0000 I   0  0  0  0  0  0  0  0  0
    5.7149   -3.8093    0.0000 C   0  0  0  0  0  0  0  0  0
    4.8899   -3.8085    0.0000 C   0  0  0  0  0  0  0  0  0
    4.4781   -3.0936    0.0000 C   0  0  0  0  0  0  0  0  0
    4.8913   -2.3795    0.0000 C   0  0  0  0  0  0  0  0  0
    5.7163   -2.3803    0.0000 C   0  0  0  0  0  0  0  0  0
    6.1281   -3.0952    0.0000 C   0  0  0  0  0  0  0  0  0
    4.4795   -1.6646    0.0000 C   0  0  0  0  0  0  0  0  0
    4.3413   -0.8472    0.0000 C   0  0  0  0  0  0  0  0  0
    3.4125   -0.8627    0.0000 C   0  0  0  0  0  0  0  0  0
    2.8519   -0.4228    0.0000 N   0  0  0  0  0  0  0  0  0
    2.9916   -1.2359    0.0000 C   0  0  0  0  0  0  0  0  0
    2.4717   -1.9482    0.0000 C   0  0  0  0  0  0  0  0  0
    3.0920   -1.5713    0.0000 C   0  0  0  0  0  0  0  0  0
    3.9633   -1.2359    0.0000 C   0  0  0  0  0  0  0  0  0
    3.6831   -2.0119    0.0000 C   0  0  0  0  0  0  0  0  0
    4.2150   -2.6425    0.0000 O   0  0  0  0  0  0  0  0  0
    3.9348   -3.4185    0.0000 C   0  0  0  0  0  0  0  0  0
    2.8710   -2.1572    0.0000 O   0  0  0  0  0  0  0  0  0
    2.4293    0.2857    0.0000 C   0  0  0  0  0  0  0  0  0
    1.6043    0.2740    0.0000 C   0  0  0  0  0  0  0  0  0
    1.1817    0.9825    0.0000 C   0  0  0  0  0  0  0  0  0
    0.3568    0.9708    0.0000 C   0  0  0  0  0  0  0  0  0
   -0.0455    0.2505    0.0000 F   0  0  0  0  0  0  0  0  0
  1  2  1  0  0  0  0
  2  3  4  0  0  0  0
  2  7  4  0  0  0  0
  3  4  4  0  0  0  0
  4  5  4  0  0  0  0
  5  6  4  0  0  0  0
  5  8  1  0  0  0  0
  6  7  4  0  0  0  0
  8  9  1  0  0  0  0
  8 15  1  0  0  0  0
  9 10  1  0  0  0  0
 10 11  1  0  0  0  0
 10 14  1  0  0  0  0
 11 12  1  0  0  0  0
 11 20  1  0  0  0  0
 12 13  1  0  0  0  0
 12 15  1  0  0  0  0
 13 14  1  0  0  0  0
 15 16  1  0  0  0  0
 16 17  1  0  0  0  0
 16 19  2  0  0  0  0
 17 18  1  0  0  0  0
 20 21  1  0  0  0  0
 21 22  2  0  0  0  0
 22 23  1  0  0  0  0
 23 24  1  0  0  0  0
M  END
>  <Name_Molregno>
685909

>  <Dopamine transporter>
9.3

>  <Norepinephrine transporter>
6.84

>  <Serotonin transporter>
8.66

$$$$
685910
  Marvin  02231216192D 0   1.00000     0.00000     0

 24 26  0  0  1  0  0  0  0  0999 V2000
    5.3049    2.8156    0.0000 F   0  0  0  0  0  0  0  0  0
    4.4800    2.8038    0.0000 C   0  0  0  0  0  0  0  0  0
    4.0777    2.0836    0.0000 C   0  0  0  0  0  0  0  0  0
    3.2528    2.0719    0.0000 C   0  0  0  0  0  0  0  0  0
    2.8504    1.3516    0.0000 C   0  0  0  0  0  0  0  0  0
    3.2731    0.6431    0.0000 N   0  0  0  0  0  0  0  0  0
    3.8337    0.2032    0.0000 C   0  0  0  0  0  0  0  0  0
    3.5132   -0.5054    0.0000 C   0  0  0  0  0  0  0  0  0
    2.8929   -0.8823    0.0000 C   0  0  0  0  0  0  0  0  0
    3.4128   -0.1700    0.0000 C   0  0  0  0  0  0  0  0  0
    4.3845   -0.1700    0.0000 C   0  0  0  0  0  0  0  0  0
    4.9007   -0.5987    0.0000 C   0  0  0  0  0  0  0  0  0
    4.7625    0.2187    0.0000 C   0  0  0  0  0  0  0  0  0
    5.2897    0.8532    0.0000 C   0  0  0  0  0  0  0  0  0
    5.0038    1.6271    0.0000 O   0  0  0  0  0  0  0  0  0
    5.5310    2.2616    0.0000 C   0  0  0  0  0  0  0  0  0
    6.1028    0.7139    0.0000 O   0  0  0  0  0  0  0  0  0
    5.3124   -1.3136    0.0000 C   0  0  0  0  0  0  0  0  0
    6.1374   -1.3144    0.0000 C   0  0  0  0  0  0  0  0  0
    6.5492   -2.0293    0.0000 C   0  0  0  0  0  0  0  0  0
    6.1360   -2.7434    0.0000 C   0  0  0  0  0  0  0  0  0
    5.3110   -2.7425    0.0000 C   0  0  0  0  0  0  0  0  0
    4.8992   -2.0277    0.0000 C   0  0  0  0  0  0  0  0  0
    6.5478   -3.4582    0.0000 C   0  0  0  0  0  0  0  0  0
  1  2  1  0  0  0  0
  2  3  1  0  0  0  0
  3  4  2  0  0  0  0
  4  5  1  0  0  0  0
  5  6  1  0  0  0  0
  6  7  1  0  0  0  0
  6 10  1  0  0  0  0
  7  8  1  0  0  0  0
  7 13  1  0  0  0  0
  8  9  1  0  0  0  0
  9 10  1  0  0  0  0
 10 11  1  0  0  0  0
 11 12  1  0  0  0  0
 12 13  1  0  0  0  0
 12 18  1  0  0  0  0
 13 14  1  0  0  0  0
 14 15  1  0  0  0  0
 14 17  2  0  0  0  0
 15 16  1  0  0  0  0
 18 19  4  0  0  0  0
 18 23  4  0  0  0  0
 19 20  4  0  0  0  0
 20 21  4  0  0  0  0
 21 22  4  0  0  0  0
 21 24  1  0  0  0  0
 22 23  4  0  0  0  0
M  END
>  <Name_Molregno>
685910

>  <Dopamine transporter>
8.57

>  <Norepinephrine transporter>
6.58

>  <Serotonin transporter>
6.83

$$$$
690483
  Marvin  02231216192D 0   1.00000     0.00000     0

 23 26  0  0  1  0  0  0  0  0999 V2000
    1.8719    3.2467    0.0000 S   0  0  0  0  0  0  0  0  0
    2.6965    3.2210    0.0000 C   0  0  0  0  0  0  0  0  0
    3.0865    2.4939    0.0000 C   0  0  0  0  0  0  0  0  0
    2.6518    1.7927    0.0000 C   0  0  0  0  0  0  0  0  0
    3.1845    1.1627    0.0000 N   0  0  0  0  0  0  0  0  0
    3.9483    1.4745    0.0000 O   0  0  0  0  0  0  0  0  0
    3.8877    2.2973    0.0000 C   0  0  0  0  0  0  0  0  0
    2.9878    0.3615    0.0000 C   0  0  0  0  0  0  0  0  0
    2.1956    0.1311    0.0000 O   0  0  0  0  0  0  0  0  0
    3.5834   -0.2095    0.0000 N   0  0  0  0  0  0  0  0  0
    3.3867   -1.0107    0.0000 C   0  0  0  0  0  0  0  0  0
    3.9823   -1.5816    0.0000 C   0  0  0  0  0  0  0  0  0
    3.7856   -2.3828    0.0000 C   0  0  0  0  0  0  0  0  0
    2.9934   -2.6131    0.0000 C   0  0  0  0  0  0  0  0  0
    2.3979   -2.0422    0.0000 C   0  0  0  0  0  0  0  0  0
    2.5945   -1.2410    0.0000 C   0  0  0  0  0  0  0  0  0
    1.8272    1.8185    0.0000 C   0  0  0  0  0  0  0  0  0
    1.3926    1.1172    0.0000 C   0  0  0  0  0  0  0  0  0
    0.5680    1.1430    0.0000 C   0  0  0  0  0  0  0  0  0
    0.1334    0.4417    0.0000 F   0  0  0  0  0  0  0  0  0
    0.1781    1.8700    0.0000 C   0  0  0  0  0  0  0  0  0
    0.6127    2.5712    0.0000 C   0  0  0  0  0  0  0  0  0
    1.4373    2.5455    0.0000 C   0  0  0  0  0  0  0  0  0
  1  2  1  0  0  0  0
  1 23  1  0  0  0  0
  2  3  1  0  0  0  0
  3  4  1  0  0  0  0
  3  7  1  0  0  0  0
  4  5  1  0  0  0  0
  4 17  1  0  0  0  0
  5  6  1  0  0  0  0
  5  8  1  0  0  0  0
  6  7  1  0  0  0  0
  8  9  2  0  0  0  0
  8 10  1  0  0  0  0
 10 11  1  0  0  0  0
 11 12  4  0  0  0  0
 11 16  4  0  0  0  0
 12 13  4  0  0  0  0
 13 14  4  0  0  0  0
 14 15  4  0  0  0  0
 15 16  4  0  0  0  0
 17 18  4  0  0  0  0
 17 23  4  0  0  0  0
 18 19  4  0  0  0  0
 19 20  1  0  0  0  0
 19 21  4  0  0  0  0
 21 22  4  0  0  0  0
 22 23  4  0  0  0  0
M  END
>  <Name_Molregno>
690483

>  <5-HT2A>
5

>  <5-HT2C>
5.15

>  <Dopamine transporter>
5

>  <Norepinephrine transporter>
5

>  <Serotonin transporter>
5

$$$$
(-)-1-(1-(2-fluorophenyl)-2-(2-(trifluoromethoxy)phenyl)ethyl)piperazine
  Marvin  02231216192D 0   1.00000     0.00000     0

 26 28  0  0  1  0  0  0  0  0999 V2000
    1.8363    1.7857    0.0000 F   0  0  0  0  0  0  0  0  0
    1.8363    0.9607    0.0000 C   0  0  0  0  0  0  0  0  0
    2.5508    0.5482    0.0000 C   0  0  0  0  0  0  0  0  0
    2.5508   -0.2768    0.0000 C   0  0  0  0  0  0  0  0  0
    1.8363   -0.6893    0.0000 C   0  0  0  0  0  0  0  0  0
    1.1218   -0.2768    0.0000 C   0  0  0  0  0  0  0  0  0
    1.1218    0.5482    0.0000 C   0  0  0  0  0  0  0  0  0
    0.4074    0.9607    0.0000 C   0  0  0  0  0  0  0  0  0
   -0.3071    0.5482    0.0000 N   0  0  0  0  0  0  0  0  0
   -0.3071   -0.2768    0.0000 C   0  0  0  0  0  0  0  0  0
   -1.0216   -0.6893    0.0000 C   0  0  0  0  0  0  0  0  0
   -1.7360   -0.2768    0.0000 N   0  0  0  0  0  0  0  0  0
   -1.7360    0.5482    0.0000 C   0  0  0  0  0  0  0  0  0
   -1.0216    0.9607    0.0000 C   0  0  0  0  0  0  0  0  0
    0.4074    1.7857    0.0000 C   0  0  0  0  0  0  0  0  0
   -0.3071    2.1982    0.0000 C   0  0  0  0  0  0  0  0  0
   -1.0216    1.7857    0.0000 C   0  0  0  0  0  0  0  0  0
   -1.7360    2.1982    0.0000 C   0  0  0  0  0  0  0  0  0
   -1.7360    3.0232    0.0000 C   0  0  0  0  0  0  0  0  0
   -1.0216    3.4357    0.0000 C   0  0  0  0  0  0  0  0  0
   -0.3071    3.0232    0.0000 C   0  0  0  0  0  0  0  0  0
    0.4074    3.4357    0.0000 O   0  0  0  0  0  0  0  0  0
    0.4074    4.2607    0.0000 C   0  0  0  0  0  0  0  0  0
    0.4074    5.0857    0.0000 F   0  0  0  0  0  0  0  0  0
    1.2324    4.2607    0.0000 F   0  0  0  0  0  0  0  0  0
   -0.4176    4.2607    0.0000 F   0  0  0  0  0  0  0  0  0
  1  2  1  0  0  0  0
  2  3  4  0  0  0  0
  2  7  4  0  0  0  0
  3  4  4  0  0  0  0
  4  5  4  0  0  0  0
  5  6  4  0  0  0  0
  6  7  4  0  0  0  0
  7  8  1  0  0  0  0
  8  9  1  0  0  0  0
  8 15  1  0  0  0  0
  9 10  1  0  0  0  0
  9 14  1  0  0  0  0
 10 11  1  0  0  0  0
 11 12  1  0  0  0  0
 12 13  1  0  0  0  0
 13 14  1  0  0  0  0
 15 16  1  0  0  0  0
 16 17  4  0  0  0  0
 16 21  4  0  0  0  0
 17 18  4  0  0  0  0
 18 19  4  0  0  0  0
 19 20  4  0  0  0  0
 20 21  4  0  0  0  0
 21 22  1  0  0  0  0
 22 23  1  0  0  0  0
 23 24  1  0  0  0  0
 23 25  1  0  0  0  0
 23 26  1  0  0  0  0
M  END
>  <Name_Molregno>
(-)-1-(1-(2-fluorophenyl)-2-(2-(trifluoromethoxy)phenyl)ethyl)piperazine

>  <Dopamine transporter>
5.33

>  <Norepinephrine transporter>
7.35

>  <Serotonin transporter>
7.59

$$$$
(-)-1-(1-(4-fluorophenyl)-2-(2-(trifluoromethoxy)phenyl)ethyl)piperazine
  Marvin  02231216192D 0   1.00000     0.00000     0

 26 28  0  0  1  0  0  0  0  0999 V2000
    2.6200    6.7797    0.0000 F   0  0  0  0  0  0  0  0  0
    2.6200    5.9547    0.0000 C   0  0  0  0  0  0  0  0  0
    3.3345    5.5422    0.0000 C   0  0  0  0  0  0  0  0  0
    3.3345    4.7172    0.0000 C   0  0  0  0  0  0  0  0  0
    2.6200    4.3047    0.0000 C   0  0  0  0  0  0  0  0  0
    1.9056    4.7172    0.0000 C   0  0  0  0  0  0  0  0  0
    1.9056    5.5422    0.0000 C   0  0  0  0  0  0  0  0  0
    2.6200    3.4797    0.0000 C   0  0  0  0  0  0  0  0  0
    3.3345    3.0672    0.0000 N   0  0  0  0  0  0  0  0  0
    4.0490    3.4797    0.0000 C   0  0  0  0  0  0  0  0  0
    4.7635    3.0672    0.0000 C   0  0  0  0  0  0  0  0  0
    4.7635    2.2422    0.0000 N   0  0  0  0  0  0  0  0  0
    4.0490    1.8297    0.0000 C   0  0  0  0  0  0  0  0  0
    3.3345    2.2422    0.0000 C   0  0  0  0  0  0  0  0  0
    1.9056    3.0672    0.0000 C   0  0  0  0  0  0  0  0  0
    1.9056    2.2422    0.0000 C   0  0  0  0  0  0  0  0  0
    2.6200    1.8297    0.0000 C   0  0  0  0  0  0  0  0  0
    2.6200    1.0047    0.0000 C   0  0  0  0  0  0  0  0  0
    1.9056    0.5922    0.0000 C   0  0  0  0  0  0  0  0  0
    1.1911    1.0047    0.0000 C   0  0  0  0  0  0  0  0  0
    1.1911    1.8297    0.0000 C   0  0  0  0  0  0  0  0  0
    0.4766    2.2422    0.0000 O   0  0  0  0  0  0  0  0  0
   -0.2378    1.8297    0.0000 C   0  0  0  0  0  0  0  0  0
   -0.9523    1.4172    0.0000 F   0  0  0  0  0  0  0  0  0
   -0.6503    2.5442    0.0000 F   0  0  0  0  0  0  0  0  0
    0.1747    1.1152    0.0000 F   0  0  0  0  0  0  0  0  0
  1  2  1  0  0  0  0
  2  3  4  0  0  0  0
  2  7  4  0  0  0  0
  3  4  4  0  0  0  0
  4  5  4  0  0  0  0
  5  6  4  0  0  0  0
  5  8  1  0  0  0  0
  6  7  4  0  0  0  0
  8  9  1  0  0  0  0
  8 15  1  0  0  0  0
  9 10  1  0  0  0  0
  9 14  1  0  0  0  0
 10 11  1  0  0  0  0
 11 12  1  0  0  0  0
 12 13  1  0  0  0  0
 13 14  1  0  0  0  0
 15 16  1  0  0  0  0
 16 17  4  0  0  0  0
 16 21  4  0  0  0  0
 17 18  4  0  0  0  0
 18 19  4  0  0  0  0
 19 20  4  0  0  0  0
 20 21  4  0  0  0  0
 21 22  1  0  0  0  0
 22 23  1  0  0  0  0
 23 24  1  0  0  0  0
 23 25  1  0  0  0  0
 23 26  1  0  0  0  0
M  END
>  <Name_Molregno>
(-)-1-(1-(4-fluorophenyl)-2-(2-(trifluoromethoxy)phenyl)ethyl)piperazine

>  <Dopamine transporter>
5.49

>  <Norepinephrine transporter>
7.17

>  <Serotonin transporter>
7.63

$$$$
(-)-1-(2-(2-(difluoromethoxy)phenyl)-1-phenylethyl)piperazine
  Marvin  02231216192D 0   1.00000     0.00000     0

 24 26  0  0  1  0  0  0  0  0999 V2000
    4.9834    3.7200    0.0000 F   0  0  0  0  0  0  0  0  0
    4.9834    2.8950    0.0000 C   0  0  0  0  0  0  0  0  0
    5.6979    2.4825    0.0000 F   0  0  0  0  0  0  0  0  0
    4.2689    2.4825    0.0000 O   0  0  0  0  0  0  0  0  0
    4.2689    1.6575    0.0000 C   0  0  0  0  0  0  0  0  0
    4.9834    1.2450    0.0000 C   0  0  0  0  0  0  0  0  0
    4.9834    0.4200    0.0000 C   0  0  0  0  0  0  0  0  0
    4.2689    0.0075    0.0000 C   0  0  0  0  0  0  0  0  0
    3.5545    0.4200    0.0000 C   0  0  0  0  0  0  0  0  0
    3.5545    1.2450    0.0000 C   0  0  0  0  0  0  0  0  0
    2.8400    1.6575    0.0000 C   0  0  0  0  0  0  0  0  0
    2.1255    1.2450    0.0000 C   0  0  0  0  0  0  0  0  0
    1.4111    1.6575    0.0000 N   0  0  0  0  0  0  0  0  0
    0.6966    1.2450    0.0000 C   0  0  0  0  0  0  0  0  0
   -0.0179    1.6575    0.0000 C   0  0  0  0  0  0  0  0  0
   -0.0179    2.4825    0.0000 N   0  0  0  0  0  0  0  0  0
    0.6966    2.8950    0.0000 C   0  0  0  0  0  0  0  0  0
    1.4111    2.4825    0.0000 C   0  0  0  0  0  0  0  0  0
    2.1255    0.4200    0.0000 C   0  0  0  0  0  0  0  0  0
    2.8400    0.0075    0.0000 C   0  0  0  0  0  0  0  0  0
    2.8400   -0.8175    0.0000 C   0  0  0  0  0  0  0  0  0
    2.1255   -1.2300    0.0000 C   0  0  0  0  0  0  0  0  0
    1.4111   -0.8175    0.0000 C   0  0  0  0  0  0  0  0  0
    1.4111    0.0075    0.0000 C   0  0  0  0  0  0  0  0  0
  1  2  1  0  0  0  0
  2  3  1  0  0  0  0
  2  4  1  0  0  0  0
  4  5  1  0  0  0  0
  5  6  4  0  0  0  0
  5 10  4  0  0  0  0
  6  7  4  0  0  0  0
  7  8  4  0  0  0  0
  8  9  4  0  0  0  0
  9 10  4  0  0  0  0
 10 11  1  0  0  0  0
 11 12  1  0  0  0  0
 12 13  1  0  0  0  0
 12 19  1  0  0  0  0
 13 14  1  0  0  0  0
 13 18  1  0  0  0  0
 14 15  1  0  0  0  0
 15 16  1  0  0  0  0
 16 17  1  0  0  0  0
 17 18  1  0  0  0  0
 19 20  4  0  0  0  0
 19 24  4  0  0  0  0
 20 21  4  0  0  0  0
 21 22  4  0  0  0  0
 22 23  4  0  0  0  0
 23 24  4  0  0  0  0
M  END
>  <Name_Molregno>
(-)-1-(2-(2-(difluoromethoxy)phenyl)-1-phenylethyl)piperazine

>  <Dopamine transporter>
5.39

>  <Norepinephrine transporter>
7.27

>  <Serotonin transporter>
7.96

$$$$
1-Ethyl-3-{(1,4-cis)-4-[4-(1H-indol-4-yl)-piperazin-1-yl]-cyclohexyl}-1H-indole-
  Marvin  02231216192D 0   1.00000     0.00000     0

 11 10  0  0  0  0  0  0  0  0999 V2000
    0.6826   -0.6348    0.0000 O   0  0  0  0  0  0  0  0  0
   -0.0318   -1.0473    0.0000 N   0  0  0  0  0  0  0  0  0
   -0.0318   -1.8723    0.0000 N   0  0  0  0  0  0  0  0  0
   -0.7463   -2.2848    0.0000 C   0  0  0  0  0  0  0  0  0
   -1.4608   -1.8723    0.0000 C   0  0  0  0  0  0  0  0  0
   -2.1752   -2.2848    0.0000 C   0  0  0  0  0  0  0  0  0
   -2.8897   -1.8723    0.0000 C   0  0  0  0  0  0  0  0  0
    0.6826   -2.2848    0.0000 C   0  0  0  0  0  0  0  0  0
    1.3971   -1.8723    0.0000 C   0  0  0  0  0  0  0  0  0
    2.1116   -2.2848    0.0000 C   0  0  0  0  0  0  0  0  0
    2.8260   -1.8723    0.0000 C   0  0  0  0  0  0  0  0  0
  1  2  2  0  0  0  0
  2  3  1  0  0  0  0
  3  4  1  0  0  0  0
  3  8  1  0  0  0  0
  4  5  1  0  0  0  0
  5  6  1  0  0  0  0
  6  7  1  0  0  0  0
  8  9  1  0  0  0  0
  9 10  1  0  0  0  0
 10 11  1  0  0  0  0
M  END
>  <Name_Molregno>
1-Ethyl-3-{(1,4-cis)-4-[4-(1H-indol-4-yl)-piperazin-1-yl]-cyclohexyl}-1H-indole-5-carbonitrile

>  <5-HT1A>
7.6

>  <Alpha-1A>
8.18

>  <Alpha-1B>
6.6

>  <DOPAMINE D2>
7.08

>  <Dopamine transporter>
6.43

>  <Norepinephrine transporter>
6.45

>  <Serotonin transporter>
6.97

$$$$
3-Benzoyloxy-8-methyl-8-aza-bicyclo[3.2.1]octane-2-carboxylic-acid-methyl-ester
  Marvin  02231216192D 0   1.00000     0.00000     0

 22 24  0  0  1  0  0  0  0  0999 V2000
    2.3890   -0.0618    0.0000 O   0  0  0  0  0  0  0  0  0
    1.5640   -0.0610    0.0000 C   0  0  0  0  0  0  0  0  0
    1.1508   -0.7751    0.0000 O   0  0  0  0  0  0  0  0  0
    1.1522    0.6539    0.0000 C   0  0  0  0  0  0  0  0  0
    1.0140    1.4713    0.0000 C   0  0  0  0  0  0  0  0  0
    0.0852    1.4558    0.0000 C   0  0  0  0  0  0  0  0  0
   -0.4754    1.8957    0.0000 N   0  0  0  0  0  0  0  0  0
   -0.3357    1.0826    0.0000 C   0  0  0  0  0  0  0  0  0
   -0.8556    0.3703    0.0000 C   0  0  0  0  0  0  0  0  0
   -0.2353    0.7472    0.0000 C   0  0  0  0  0  0  0  0  0
    0.6360    1.0826    0.0000 C   0  0  0  0  0  0  0  0  0
    0.3558    0.3066    0.0000 C   0  0  0  0  0  0  0  0  0
   -0.4563    0.1613    0.0000 O   0  0  0  0  0  0  0  0  0
   -0.7365   -0.6147    0.0000 C   0  0  0  0  0  0  0  0  0
    0.8877   -0.3240    0.0000 O   0  0  0  0  0  0  0  0  0
   -0.8980    2.6042    0.0000 C   0  0  0  0  0  0  0  0  0
    2.8008   -0.7767    0.0000 C   0  0  0  0  0  0  0  0  0
    3.6258   -0.7775    0.0000 C   0  0  0  0  0  0  0  0  0
    4.0376   -1.4924    0.0000 C   0  0  0  0  0  0  0  0  0
    3.6244   -2.2065    0.0000 C   0  0  0  0  0  0  0  0  0
    2.7994   -2.2056    0.0000 C   0  0  0  0  0  0  0  0  0
    2.3876   -1.4908    0.0000 C   0  0  0  0  0  0  0  0  0
  1  2  1  0  0  0  0
  1 17  1  0  0  0  0
  2  3  2  0  0  0  0
  2  4  1  0  0  0  0
  4  5  1  0  0  0  0
  4 11  1  0  0  0  0
  5  6  1  0  0  0  0
  6  7  1  0  0  0  0
  6 10  1  0  0  0  0
  7  8  1  0  0  0  0
  7 16  1  0  0  0  0
  8  9  1  0  0  0  0
  8 11  1  0  0  0  0
  9 10  1  0  0  0  0
 11 12  1  0  0  0  0
 12 13  1  0  0  0  0
 12 15  2  0  0  0  0
 13 14  1  0  0  0  0
 17 18  4  0  0  0  0
 17 22  4  0  0  0  0
 18 19  4  0  0  0  0
 19 20  4  0  0  0  0
 20 21  4  0  0  0  0
 21 22  4  0  0  0  0
M  END
>  <Name_Molregno>
3-Benzoyloxy-8-methyl-8-aza-bicyclo[3.2.1]octane-2-carboxylic-acid-methyl-ester

>  <Dopamine transporter>
6.38

>  <Norepinephrine transporter>
5.91

>  <Serotonin transporter>
6.52

$$$$
9-OH-risperidone
  Marvin  02231216192D 0   1.00000     0.00000     0

 31 35  0  0  1  0  0  0  0  0999 V2000
    1.7758   -2.6889    0.0000 F   0  0  0  0  0  0  0  0  0
    2.0308   -1.9043    0.0000 C   0  0  0  0  0  0  0  0  0
    1.4788   -1.2912    0.0000 C   0  0  0  0  0  0  0  0  0
    1.7337   -0.5066    0.0000 C   0  0  0  0  0  0  0  0  0
    1.3212    0.2079    0.0000 O   0  0  0  0  0  0  0  0  0
    1.8732    0.8210    0.0000 N   0  0  0  0  0  0  0  0  0
    2.6269    0.4854    0.0000 C   0  0  0  0  0  0  0  0  0
    2.5407   -0.3350    0.0000 C   0  0  0  0  0  0  0  0  0
    3.0927   -0.9481    0.0000 C   0  0  0  0  0  0  0  0  0
    2.8378   -1.7327    0.0000 C   0  0  0  0  0  0  0  0  0
    3.3414    0.8979    0.0000 C   0  0  0  0  0  0  0  0  0
    3.3414    1.7229    0.0000 C   0  0  0  0  0  0  0  0  0
    4.0558    2.1354    0.0000 C   0  0  0  0  0  0  0  0  0
    4.7703    1.7229    0.0000 N   0  0  0  0  0  0  0  0  0
    4.7703    0.8979    0.0000 C   0  0  0  0  0  0  0  0  0
    4.0558    0.4854    0.0000 C   0  0  0  0  0  0  0  0  0
    5.4848    2.1354    0.0000 C   0  0  0  0  0  0  0  0  0
    6.1993    1.7229    0.0000 C   0  0  0  0  0  0  0  0  0
    6.9137    2.1354    0.0000 C   0  0  0  0  0  0  0  0  0
    7.6282    1.7229    0.0000 C   0  0  0  0  0  0  0  0  0
    7.6282    0.8979    0.0000 O   0  0  0  0  0  0  0  0  0
    8.3427    2.1354    0.0000 N   0  0  0  0  0  0  0  0  0
    8.3427    2.9604    0.0000 C   0  0  0  0  0  0  0  0  0
    7.6282    3.3729    0.0000 N   0  0  0  0  0  0  0  0  0
    6.9137    2.9604    0.0000 C   0  0  0  0  0  0  0  0  0
    6.1993    3.3729    0.0000 C   0  0  0  0  0  0  0  0  0
    9.0571    3.3729    0.0000 C   0  0  0  0  0  0  0  0  0
    9.0571    4.1979    0.0000 O   0  0  0  0  0  0  0  0  0
    9.7716    2.9604    0.0000 C   0  0  0  0  0  0  0  0  0
    9.7716    2.1354    0.0000 C   0  0  0  0  0  0  0  0  0
    9.0571    1.7229    0.0000 C   0  0  0  0  0  0  0  0  0
  1  2  1  0  0  0  0
  2  3  4  0  0  0  0
  2 10  4  0  0  0  0
  3  4  4  0  0  0  0
  4  5  4  0  0  0  0
  4  8  4  0  0  0  0
  5  6  4  0  0  0  0
  6  7  4  0  0  0  0
  7  8  4  0  0  0  0
  7 11  1  0  0  0  0
  8  9  4  0  0  0  0
  9 10  4  0  0  0  0
 11 12  1  0  0  0  0
 11 16  1  0  0  0  0
 12 13  1  0  0  0  0
 13 14  1  0  0  0  0
 14 15  1  0  0  0  0
 14 17  1  0  0  0  0
 15 16  1  0  0  0  0
 17 18  1  0  0  0  0
 18 19  1  0  0  0  0
 19 20  1  0  0  0  0
 19 25  2  0  0  0  0
 20 21  2  0  0  0  0
 20 22  1  0  0  0  0
 22 23  1  0  0  0  0
 22 31  1  0  0  0  0
 23 24  2  0  0  0  0
 23 27  1  0  0  0  0
 24 25  1  0  0  0  0
 25 26  1  0  0  0  0
 27 28  1  0  0  0  0
 27 29  1  0  0  0  0
 29 30  1  0  0  0  0
 30 31  1  0  0  0  0
M  END
>  <Name_Molregno>
9-OH-risperidone

>  <5-HT1A>
6.24

>  <5-HT1B>
7.51

>  <5-HT1D>
7.44

>  <5-HT1E>
5.49

>  <5-HT2A>
9

>  <5-HT2C>
7.32

>  <5-HT3>
5

>  <5-HT5>
6.56

>  <5-HT6>
5.62

>  <5-HT7>
8.57

>  <Alpha-1A>
8.6

>  <Alpha-1B>
9.15

>  <Alpha-2A>
7.92

>  <Alpha-2B>
7.63

>  <Alpha-2C>
8.2

>  <Beta-1>
5.15

>  <Beta-2>
5.15

>  <DOPAMINE D1>
7.39

>  <DOPAMINE D2>
8.61

>  <DOPAMINE D3>
9.07

>  <DOPAMINE D4>
7.4

>  <DOPAMINE D5>
7.54

>  <Dopamine transporter>
5

>  <HISTAMINE H1>
8.07

>  <HISTAMINE H2>
6.92

>  <HISTAMINE H4>
5.06

>  <Muscarinic acetylcholine receptor M1>
5

>  <Muscarinic acetylcholine receptor M2>
5

>  <Muscarinic acetylcholine receptor M3>
5

>  <Muscarinic acetylcholine receptor M4>
5

>  <Muscarinic acetylcholine receptor M5>
5

>  <Norepinephrine transporter>
5

>  <Serotonin transporter>
5.71

$$$$
Amentoflavone
  Marvin  02231216192D 0   1.00000     0.00000     0

 40 45  0  0  0  0  0  0  0  0999 V2000
   -3.5941   -0.9772    0.0000 O   0  0  0  0  0  0  0  0  0
   -3.5941   -0.1522    0.0000 C   0  0  0  0  0  0  0  0  0
   -4.3085    0.2603    0.0000 C   0  0  0  0  0  0  0  0  0
   -5.0230   -0.1522    0.0000 C   0  0  0  0  0  0  0  0  0
   -5.7375    0.2603    0.0000 O   0  0  0  0  0  0  0  0  0
   -5.0230   -0.9772    0.0000 C   0  0  0  0  0  0  0  0  0
   -4.3085   -1.3897    0.0000 C   0  0  0  0  0  0  0  0  0
   -4.3085   -2.2147    0.0000 C   0  0  0  0  0  0  0  0  0
   -3.5941   -2.6272    0.0000 C   0  0  0  0  0  0  0  0  0
   -3.5941   -3.4522    0.0000 C   0  0  0  0  0  0  0  0  0
   -4.3085   -3.8647    0.0000 C   0  0  0  0  0  0  0  0  0
   -4.3085   -4.6897    0.0000 O   0  0  0  0  0  0  0  0  0
   -5.0230   -3.4522    0.0000 C   0  0  0  0  0  0  0  0  0
   -5.0230   -2.6272    0.0000 C   0  0  0  0  0  0  0  0  0
   -4.3085    1.0853    0.0000 C   0  0  0  0  0  0  0  0  0
   -5.0230    1.4978    0.0000 O   0  0  0  0  0  0  0  0  0
   -3.5941    1.4978    0.0000 C   0  0  0  0  0  0  0  0  0
   -2.8796    1.0853    0.0000 C   0  0  0  0  0  0  0  0  0
   -2.1651    1.4978    0.0000 O   0  0  0  0  0  0  0  0  0
   -2.8796    0.2603    0.0000 C   0  0  0  0  0  0  0  0  0
   -2.1651   -0.1522    0.0000 C   0  0  0  0  0  0  0  0  0
   -1.4507    0.2603    0.0000 C   0  0  0  0  0  0  0  0  0
   -0.7362   -0.1522    0.0000 C   0  0  0  0  0  0  0  0  0
   -0.7362   -0.9772    0.0000 C   0  0  0  0  0  0  0  0  0
   -1.4507   -1.3897    0.0000 C   0  0  0  0  0  0  0  0  0
   -2.1651   -0.9772    0.0000 C   0  0  0  0  0  0  0  0  0
   -2.8796   -1.3897    0.0000 O   0  0  0  0  0  0  0  0  0
   -0.0217    0.2603    0.0000 C   0  0  0  0  0  0  0  0  0
    0.6928   -0.1522    0.0000 O   0  0  0  0  0  0  0  0  0
    1.4072    0.2603    0.0000 C   0  0  0  0  0  0  0  0  0
    1.4072    1.0853    0.0000 C   0  0  0  0  0  0  0  0  0
    0.6928    1.4978    0.0000 C   0  0  0  0  0  0  0  0  0
    0.6928    2.3228    0.0000 O   0  0  0  0  0  0  0  0  0
   -0.0217    1.0853    0.0000 C   0  0  0  0  0  0  0  0  0
    2.1217    1.4978    0.0000 C   0  0  0  0  0  0  0  0  0
    2.1217    2.3228    0.0000 O   0  0  0  0  0  0  0  0  0
    2.8362    1.0853    0.0000 C   0  0  0  0  0  0  0  0  0
    2.8362    0.2603    0.0000 C   0  0  0  0  0  0  0  0  0
    3.5506   -0.1522    0.0000 O   0  0  0  0  0  0  0  0  0
    2.1217   -0.1522    0.0000 C   0  0  0  0  0  0  0  0  0
  1  2  1  0  0  0  0
  1  7  1  0  0  0  0
  2  3  4  0  0  0  0
  2 20  4  0  0  0  0
  3  4  1  0  0  0  0
  3 15  4  0  0  0  0
  4  5  2  0  0  0  0
  4  6  1  0  0  0  0
  6  7  2  0  0  0  0
  7  8  1  0  0  0  0
  8  9  4  0  0  0  0
  8 14  4  0  0  0  0
  9 10  4  0  0  0  0
 10 11  4  0  0  0  0
 11 12  1  0  0  0  0
 11 13  4  0  0  0  0
 13 14  4  0  0  0  0
 15 16  1  0  0  0  0
 15 17  4  0  0  0  0
 17 18  4  0  0  0  0
 18 19  1  0  0  0  0
 18 20  4  0  0  0  0
 20 21  1  0  0  0  0
 21 22  4  0  0  0  0
 21 26  4  0  0  0  0
 22 23  4  0  0  0  0
 23 24  4  0  0  0  0
 23 28  1  0  0  0  0
 24 25  4  0  0  0  0
 25 26  4  0  0  0  0
 26 27  1  0  0  0  0
 28 29  1  0  0  0  0
 28 34  2  0  0  0  0
 29 30  1  0  0  0  0
 30 31  4  0  0  0  0
 30 40  4  0  0  0  0
 31 32  1  0  0  0  0
 31 35  4  0  0  0  0
 32 33  2  0  0  0  0
 32 34  1  0  0  0  0
 35 36  1  0  0  0  0
 35 37  4  0  0  0  0
 37 38  4  0  0  0  0
 38 39  1  0  0  0  0
 38 40  4  0  0  0  0
M  END
>  <Name_Molregno>
Amentoflavone

>  <5-HT1A>
5

>  <5-HT1B>
5.39

>  <5-HT1D>
5

>  <5-HT2C>
5.59

>  <5-HT3>
5

>  <5-HT5>
5

>  <5-HT6>
5

>  <5-HT7>
5

>  <Alpha-1A>
5

>  <Alpha-1B>
5

>  <Alpha-2A>
5

>  <Alpha-2B>
5

>  <Alpha-2C>
5

>  <DOPAMINE D1>
5

>  <DOPAMINE D5>
5

>  <Muscarinic acetylcholine receptor M1>
5

>  <Muscarinic acetylcholine receptor M2>
5

>  <Muscarinic acetylcholine receptor M3>
5

>  <Muscarinic acetylcholine receptor M4>
5

>  <Muscarinic acetylcholine receptor M5>
5

>  <Norepinephrine transporter>
5

>  <Serotonin transporter>
5

$$$$
AMITRIPTYLINE
  Marvin  02231216192D 0   1.00000     0.00000     0

 21 23  0  0  0  0  0  0  0  0999 V2000
    0.4326    2.9044    0.0000 N   0  0  0  0  0  0  0  0  0
    1.1470    2.4919    0.0000 C   0  0  0  0  0  0  0  0  0
    1.8615    2.9044    0.0000 C   0  0  0  0  0  0  0  0  0
    2.5760    2.4919    0.0000 C   0  0  0  0  0  0  0  0  0
    2.5760    1.6669    0.0000 C   0  0  0  0  0  0  0  0  0
    3.3193    1.3089    0.0000 C   0  0  0  0  0  0  0  0  0
    3.5029    0.5046    0.0000 C   0  0  0  0  0  0  0  0  0
    2.9885   -0.1404    0.0000 C   0  0  0  0  0  0  0  0  0
    2.1635   -0.1404    0.0000 C   0  0  0  0  0  0  0  0  0
    1.6491    0.5046    0.0000 C   0  0  0  0  0  0  0  0  0
    1.8327    1.3089    0.0000 C   0  0  0  0  0  0  0  0  0
    1.2279    1.8701    0.0000 C   0  0  0  0  0  0  0  0  0
    0.4396    1.6269    0.0000 C   0  0  0  0  0  0  0  0  0
    0.2560    0.8226    0.0000 C   0  0  0  0  0  0  0  0  0
    0.8608    0.2615    0.0000 C   0  0  0  0  0  0  0  0  0
    4.2912    0.2615    0.0000 C   0  0  0  0  0  0  0  0  0
    4.8960    0.8226    0.0000 C   0  0  0  0  0  0  0  0  0
    4.7124    1.6269    0.0000 C   0  0  0  0  0  0  0  0  0
    3.9241    1.8701    0.0000 C   0  0  0  0  0  0  0  0  0
   -0.2819    2.4919    0.0000 C   0  0  0  0  0  0  0  0  0
    0.4326    3.7294    0.0000 C   0  0  0  0  0  0  0  0  0
  1  2  1  0  0  0  0
  1 20  1  0  0  0  0
  1 21  1  0  0  0  0
  2  3  1  0  0  0  0
  3  4  1  0  0  0  0
  4  5  2  0  0  0  0
  5  6  1  0  0  0  0
  5 11  1  0  0  0  0
  6  7  4  0  0  0  0
  6 19  4  0  0  0  0
  7  8  1  0  0  0  0
  7 16  4  0  0  0  0
  8  9  1  0  0  0  0
  9 10  1  0  0  0  0
 10 11  4  0  0  0  0
 10 15  4  0  0  0  0
 11 12  4  0  0  0  0
 12 13  4  0  0  0  0
 13 14  4  0  0  0  0
 14 15  4  0  0  0  0
 16 17  4  0  0  0  0
 17 18  4  0  0  0  0
 18 19  4  0  0  0  0
M  END
>  <Name_Molregno>
AMITRIPTYLINE

>  <5-HT1A>
6.35

>  <5-HT2A>
7.64

>  <5-HT6>
7.02

>  <DOPAMINE D1>
7.05

>  <DOPAMINE D2>
6.42

>  <DOPAMINE D3>
6.69

>  <DOPAMINE D5>
6.77

>  <Dopamine transporter>
5.4

>  <HISTAMINE H1>
9.08

>  <HISTAMINE H3>
6

>  <HISTAMINE H4>
7.47

>  <Muscarinic acetylcholine receptor M1>
7.89

>  <Muscarinic acetylcholine receptor M2>
7.93

>  <Muscarinic acetylcholine receptor M3>
7.65

>  <Muscarinic acetylcholine receptor M4>
8.14

>  <Muscarinic acetylcholine receptor M5>
7.71

>  <Norepinephrine transporter>
7.45

>  <Serotonin transporter>
8

$$$$
AMOXAPINE
  Marvin  02231216192D 0   1.00000     0.00000     0

 22 25  0  0  0  0  0  0  0  0999 V2000
    4.1595    1.7861    0.0000 Cl  0  0  0  0  0  0  0  0  0
    3.3712    1.5429    0.0000 C   0  0  0  0  0  0  0  0  0
    2.7664    2.1041    0.0000 C   0  0  0  0  0  0  0  0  0
    1.9781    1.8609    0.0000 C   0  0  0  0  0  0  0  0  0
    1.7945    1.0566    0.0000 C   0  0  0  0  0  0  0  0  0
    1.0512    0.6986    0.0000 O   0  0  0  0  0  0  0  0  0
    0.3079    1.0566    0.0000 C   0  0  0  0  0  0  0  0  0
    0.1243    1.8609    0.0000 C   0  0  0  0  0  0  0  0  0
    0.6387    2.5059    0.0000 N   0  0  0  0  0  0  0  0  0
    1.4637    2.5059    0.0000 C   0  0  0  0  0  0  0  0  0
    1.8217    3.2492    0.0000 N   0  0  0  0  0  0  0  0  0
    1.3569    3.9309    0.0000 C   0  0  0  0  0  0  0  0  0
    1.7149    4.6742    0.0000 C   0  0  0  0  0  0  0  0  0
    2.5376    4.7358    0.0000 N   0  0  0  0  0  0  0  0  0
    3.0023    4.0542    0.0000 C   0  0  0  0  0  0  0  0  0
    2.6444    3.3109    0.0000 C   0  0  0  0  0  0  0  0  0
   -0.6640    2.1041    0.0000 C   0  0  0  0  0  0  0  0  0
   -1.2688    1.5429    0.0000 C   0  0  0  0  0  0  0  0  0
   -1.0852    0.7386    0.0000 C   0  0  0  0  0  0  0  0  0
   -0.2969    0.4954    0.0000 C   0  0  0  0  0  0  0  0  0
    2.3993    0.4954    0.0000 C   0  0  0  0  0  0  0  0  0
    3.1876    0.7386    0.0000 C   0  0  0  0  0  0  0  0  0
  1  2  1  0  0  0  0
  2  3  4  0  0  0  0
  2 22  4  0  0  0  0
  3  4  4  0  0  0  0
  4  5  4  0  0  0  0
  4 10  1  0  0  0  0
  5  6  1  0  0  0  0
  5 21  4  0  0  0  0
  6  7  1  0  0  0  0
  7  8  4  0  0  0  0
  7 20  4  0  0  0  0
  8  9  1  0  0  0  0
  8 17  4  0  0  0  0
  9 10  2  0  0  0  0
 10 11  1  0  0  0  0
 11 12  1  0  0  0  0
 11 16  1  0  0  0  0
 12 13  1  0  0  0  0
 13 14  1  0  0  0  0
 14 15  1  0  0  0  0
 15 16  1  0  0  0  0
 17 18  4  0  0  0  0
 18 19  4  0  0  0  0
 19 20  4  0  0  0  0
 21 22  4  0  0  0  0
M  END
>  <Name_Molregno>
AMOXAPINE

>  <5-HT2A>
9.3

>  <5-HT6>
7.3

>  <5-HT7>
6.3

>  <DOPAMINE D2>
7.89

>  <DOPAMINE D3>
7.74

>  <DOPAMINE D4>
8.05

>  <Dopamine transporter>
5.37

>  <Norepinephrine transporter>
7.8

>  <Serotonin transporter>
7.24

$$$$
Amphetamine
  Marvin  02231216192D 0   1.00000     0.00000     0

 10 10  0  0  1  0  0  0  0  0999 V2000
    1.5187    1.4161    0.0000 N   0  0  0  0  0  0  0  0  0
    1.5187    0.5911    0.0000 C   0  0  0  0  0  0  0  0  0
    2.2332    0.1786    0.0000 C   0  0  0  0  0  0  0  0  0
    2.2332   -0.6464    0.0000 C   0  0  0  0  0  0  0  0  0
    2.9477   -1.0589    0.0000 C   0  0  0  0  0  0  0  0  0
    2.9477   -1.8839    0.0000 C   0  0  0  0  0  0  0  0  0
    2.2332   -2.2964    0.0000 C   0  0  0  0  0  0  0  0  0
    1.5187   -1.8839    0.0000 C   0  0  0  0  0  0  0  0  0
    1.5187   -1.0589    0.0000 C   0  0  0  0  0  0  0  0  0
    0.8043    0.1786    0.0000 C   0  0  0  0  0  0  0  0  0
  1  2  1  0  0  0  0
  2  3  1  0  0  0  0
  2 10  1  0  0  0  0
  3  4  1  0  0  0  0
  4  5  4  0  0  0  0
  4  9  4  0  0  0  0
  5  6  4  0  0  0  0
  6  7  4  0  0  0  0
  7  8  4  0  0  0  0
  8  9  4  0  0  0  0
M  END
>  <Name_Molregno>
Amphetamine

>  <5-HT1A>
5.18

>  <DOPAMINE D1>
5

>  <DOPAMINE D2>
5

>  <DOPAMINE D3>
5

>  <Dopamine transporter>
6.57

>  <Norepinephrine transporter>
8.15

>  <Serotonin transporter>
5.75

$$$$
ARIPIPRAZOLE
  Marvin  02231216192D 0   1.00000     0.00000     0

 30 33  0  0  0  0  0  0  0  0999 V2000
   -8.7485    0.0493    0.0000 Cl  0  0  0  0  0  0  0  0  0
   -8.7485   -0.7757    0.0000 C   0  0  0  0  0  0  0  0  0
   -8.0340   -1.1882    0.0000 C   0  0  0  0  0  0  0  0  0
   -7.3195   -0.7757    0.0000 N   0  0  0  0  0  0  0  0  0
   -7.3195    0.0493    0.0000 C   0  0  0  0  0  0  0  0  0
   -6.6051    0.4618    0.0000 C   0  0  0  0  0  0  0  0  0
   -5.8906    0.0493    0.0000 N   0  0  0  0  0  0  0  0  0
   -5.8906   -0.7757    0.0000 C   0  0  0  0  0  0  0  0  0
   -6.6051   -1.1882    0.0000 C   0  0  0  0  0  0  0  0  0
   -5.1761    0.4618    0.0000 C   0  0  0  0  0  0  0  0  0
   -4.4616    0.0493    0.0000 C   0  0  0  0  0  0  0  0  0
   -3.7472    0.4618    0.0000 C   0  0  0  0  0  0  0  0  0
   -3.0327    0.0493    0.0000 C   0  0  0  0  0  0  0  0  0
   -2.3182    0.4618    0.0000 O   0  0  0  0  0  0  0  0  0
   -1.6038    0.0493    0.0000 C   0  0  0  0  0  0  0  0  0
   -0.8893    0.4618    0.0000 C   0  0  0  0  0  0  0  0  0
   -0.1748    0.0493    0.0000 C   0  0  0  0  0  0  0  0  0
    0.5397    0.4618    0.0000 N   0  0  0  0  0  0  0  0  0
    1.2541    0.0493    0.0000 C   0  0  0  0  0  0  0  0  0
    1.9686    0.4618    0.0000 O   0  0  0  0  0  0  0  0  0
    1.2541   -0.7757    0.0000 C   0  0  0  0  0  0  0  0  0
    0.5397   -1.1882    0.0000 C   0  0  0  0  0  0  0  0  0
   -0.1748   -0.7757    0.0000 C   0  0  0  0  0  0  0  0  0
   -0.8893   -1.1882    0.0000 C   0  0  0  0  0  0  0  0  0
   -1.6038   -0.7757    0.0000 C   0  0  0  0  0  0  0  0  0
   -8.0340   -2.0132    0.0000 C   0  0  0  0  0  0  0  0  0
   -8.7485   -2.4257    0.0000 C   0  0  0  0  0  0  0  0  0
   -9.4629   -2.0132    0.0000 C   0  0  0  0  0  0  0  0  0
   -9.4629   -1.1882    0.0000 C   0  0  0  0  0  0  0  0  0
  -10.1774   -0.7757    0.0000 Cl  0  0  0  0  0  0  0  0  0
  1  2  1  0  0  0  0
  2  3  4  0  0  0  0
  2 29  4  0  0  0  0
  3  4  1  0  0  0  0
  3 26  4  0  0  0  0
  4  5  1  0  0  0  0
  4  9  1  0  0  0  0
  5  6  1  0  0  0  0
  6  7  1  0  0  0  0
  7  8  1  0  0  0  0
  7 10  1  0  0  0  0
  8  9  1  0  0  0  0
 10 11  1  0  0  0  0
 11 12  1  0  0  0  0
 12 13  1  0  0  0  0
 13 14  1  0  0  0  0
 14 15  1  0  0  0  0
 15 16  4  0  0  0  0
 15 25  4  0  0  0  0
 16 17  4  0  0  0  0
 17 18  1  0  0  0  0
 17 23  4  0  0  0  0
 18 19  1  0  0  0  0
 19 20  2  0  0  0  0
 19 21  1  0  0  0  0
 21 22  1  0  0  0  0
 22 23  1  0  0  0  0
 23 24  4  0  0  0  0
 24 25  4  0  0  0  0
 26 27  4  0  0  0  0
 27 28  4  0  0  0  0
 28 29  4  0  0  0  0
 29 30  1  0  0  0  0
M  END
>  <Name_Molregno>
ARIPIPRAZOLE

>  <5-HT1A>
8.21

>  <5-HT1B>
6.08

>  <5-HT1D>
7.18

>  <5-HT1E>
5.1

>  <5-HT2A>
7.85

>  <5-HT2C>
7.48

>  <5-HT3>
6.25

>  <5-HT5>
5.91

>  <5-HT6>
6.32

>  <5-HT7>
7.81

>  <Alpha-1A>
7.59

>  <Alpha-1B>
7.46

>  <Alpha-2A>
7.13

>  <Alpha-2B>
6.99

>  <Alpha-2C>
7.42

>  <Beta-1>
6.85

>  <Beta-2>
6.79

>  <DOPAMINE D1>
6.06

>  <DOPAMINE D2>
8.72

>  <DOPAMINE D3>
8.45

>  <DOPAMINE D4>
6.51

>  <DOPAMINE D5>
5.69

>  <Dopamine transporter>
5.49

>  <HISTAMINE H1>
7.56

>  <HISTAMINE H2>
5

>  <HISTAMINE H4>
5

>  <Muscarinic acetylcholine receptor M1>
5.17

>  <Muscarinic acetylcholine receptor M2>
5.45

>  <Muscarinic acetylcholine receptor M3>
5.33

>  <Muscarinic acetylcholine receptor M4>
5.82

>  <Muscarinic acetylcholine receptor M5>
5.63

>  <Norepinephrine transporter>
5.68

>  <Serotonin transporter>
6.48

$$$$
Atomoxetine
  Marvin  02231216192D 0   1.00000     0.00000     0

 19 20  0  0  1  0  0  0  0  0999 V2000
   -0.2008    0.4420    0.0000 O   0  0  0  0  0  0  0  0  0
    0.5136    0.8545    0.0000 C   0  0  0  0  0  0  0  0  0
    1.2281    0.4420    0.0000 C   0  0  0  0  0  0  0  0  0
    1.9426    0.8545    0.0000 C   0  0  0  0  0  0  0  0  0
    2.6570    0.4420    0.0000 N   0  0  0  0  0  0  0  0  0
    2.6570   -0.3830    0.0000 C   0  0  0  0  0  0  0  0  0
    0.5136    1.6795    0.0000 C   0  0  0  0  0  0  0  0  0
   -0.2008    2.0920    0.0000 C   0  0  0  0  0  0  0  0  0
   -0.2008    2.9170    0.0000 C   0  0  0  0  0  0  0  0  0
    0.5136    3.3295    0.0000 C   0  0  0  0  0  0  0  0  0
    1.2281    2.9170    0.0000 C   0  0  0  0  0  0  0  0  0
    1.2281    2.0920    0.0000 C   0  0  0  0  0  0  0  0  0
   -0.2008   -0.3830    0.0000 C   0  0  0  0  0  0  0  0  0
    0.5136   -0.7955    0.0000 C   0  0  0  0  0  0  0  0  0
    0.5136   -1.6205    0.0000 C   0  0  0  0  0  0  0  0  0
   -0.2008   -2.0330    0.0000 C   0  0  0  0  0  0  0  0  0
   -0.9153   -1.6205    0.0000 C   0  0  0  0  0  0  0  0  0
   -0.9153   -0.7955    0.0000 C   0  0  0  0  0  0  0  0  0
   -1.6298   -0.3830    0.0000 C   0  0  0  0  0  0  0  0  0
  1  2  1  0  0  0  0
  1 13  1  0  0  0  0
  2  3  1  0  0  0  0
  2  7  1  0  0  0  0
  3  4  1  0  0  0  0
  4  5  1  0  0  0  0
  5  6  1  0  0  0  0
  7  8  4  0  0  0  0
  7 12  4  0  0  0  0
  8  9  4  0  0  0  0
  9 10  4  0  0  0  0
 10 11  4  0  0  0  0
 11 12  4  0  0  0  0
 13 14  4  0  0  0  0
 13 18  4  0  0  0  0
 14 15  4  0  0  0  0
 15 16  4  0  0  0  0
 16 17  4  0  0  0  0
 17 18  4  0  0  0  0
 18 19  1  0  0  0  0
M  END
>  <Name_Molregno>
Atomoxetine

>  <5-HT1A>
5.5

>  <5-HT1B>
6

>  <5-HT1D>
6

>  <5-HT2A>
6

>  <5-HT2C>
6

>  <5-HT6>
6

>  <5-HT7>
6

>  <Alpha-2A>
6

>  <DOPAMINE D2>
5.5

>  <Dopamine transporter>
5.88

>  <HISTAMINE H1>
5.63

>  <Muscarinic acetylcholine receptor M1>
6

>  <Muscarinic acetylcholine receptor M2>
6

>  <Norepinephrine transporter>
8.43

>  <Serotonin transporter>
7.42

$$$$
BUPROPION
  Marvin  02231216192D 0   1.00000     0.00000     0

 16 16  0  0  1  0  0  0  0  0999 V2000
    1.2680    2.2852    0.0000 Cl  0  0  0  0  0  0  0  0  0
    1.2680    1.4602    0.0000 C   0  0  0  0  0  0  0  0  0
    1.9824    1.0477    0.0000 C   0  0  0  0  0  0  0  0  0
    1.9824    0.2227    0.0000 C   0  0  0  0  0  0  0  0  0
    1.2680   -0.1898    0.0000 C   0  0  0  0  0  0  0  0  0
    0.5535    0.2227    0.0000 C   0  0  0  0  0  0  0  0  0
    0.5535    1.0477    0.0000 C   0  0  0  0  0  0  0  0  0
    2.6969   -0.1898    0.0000 C   0  0  0  0  0  0  0  0  0
    2.6969   -1.0148    0.0000 O   0  0  0  0  0  0  0  0  0
    3.4114    0.2227    0.0000 C   0  0  0  0  0  0  0  0  0
    4.1259   -0.1898    0.0000 N   0  0  0  0  0  0  0  0  0
    4.8403    0.2227    0.0000 C   0  0  0  0  0  0  0  0  0
    5.5548    0.6352    0.0000 C   0  0  0  0  0  0  0  0  0
    5.2528   -0.4917    0.0000 C   0  0  0  0  0  0  0  0  0
    4.4278    0.9372    0.0000 C   0  0  0  0  0  0  0  0  0
    3.4114    1.0477    0.0000 C   0  0  0  0  0  0  0  0  0
  1  2  1  0  0  0  0
  2  3  4  0  0  0  0
  2  7  4  0  0  0  0
  3  4  4  0  0  0  0
  4  5  4  0  0  0  0
  4  8  1  0  0  0  0
  5  6  4  0  0  0  0
  6  7  4  0  0  0  0
  8  9  2  0  0  0  0
  8 10  1  0  0  0  0
 10 11  1  0  0  0  0
 10 16  1  0  0  0  0
 11 12  1  0  0  0  0
 12 13  1  0  0  0  0
 12 14  1  0  0  0  0
 12 15  1  0  0  0  0
M  END
>  <Name_Molregno>
BUPROPION

>  <5-HT1A>
5

>  <DOPAMINE D2>
5

>  <Dopamine transporter>
6.15

>  <HISTAMINE H1>
5

>  <Muscarinic acetylcholine receptor M1>
5

>  <Muscarinic acetylcholine receptor M2>
5

>  <Muscarinic acetylcholine receptor M3>
5

>  <Muscarinic acetylcholine receptor M4>
5

>  <Muscarinic acetylcholine receptor M5>
5

>  <Norepinephrine transporter>
5.08

>  <Serotonin transporter>
5.01

$$$$
butriptyline
  Marvin  02231216192D 0   1.00000     0.00000     0

 22 24  0  0  1  0  0  0  0  0999 V2000
   -0.5470    1.2413    0.0000 N   0  0  0  0  0  0  0  0  0
    0.1675    0.8288    0.0000 C   0  0  0  0  0  0  0  0  0
    0.8820    1.2413    0.0000 C   0  0  0  0  0  0  0  0  0
    1.5964    0.8288    0.0000 C   0  0  0  0  0  0  0  0  0
    2.3109    1.2413    0.0000 C   0  0  0  0  0  0  0  0  0
    2.2492    2.0640    0.0000 C   0  0  0  0  0  0  0  0  0
    2.8540    2.6251    0.0000 C   0  0  0  0  0  0  0  0  0
    3.6698    2.5022    0.0000 C   0  0  0  0  0  0  0  0  0
    4.0823    1.7877    0.0000 C   0  0  0  0  0  0  0  0  0
    3.7809    1.0197    0.0000 C   0  0  0  0  0  0  0  0  0
    2.9925    0.7766    0.0000 C   0  0  0  0  0  0  0  0  0
    2.8090   -0.0278    0.0000 C   0  0  0  0  0  0  0  0  0
    3.4137   -0.5889    0.0000 C   0  0  0  0  0  0  0  0  0
    4.2021   -0.3457    0.0000 C   0  0  0  0  0  0  0  0  0
    4.3857    0.4586    0.0000 C   0  0  0  0  0  0  0  0  0
    2.6704    3.4294    0.0000 C   0  0  0  0  0  0  0  0  0
    1.8821    3.6726    0.0000 C   0  0  0  0  0  0  0  0  0
    1.2773    3.1115    0.0000 C   0  0  0  0  0  0  0  0  0
    1.4609    2.3072    0.0000 C   0  0  0  0  0  0  0  0  0
    0.8820    2.0663    0.0000 C   0  0  0  0  0  0  0  0  0
   -1.2615    0.8288    0.0000 C   0  0  0  0  0  0  0  0  0
   -0.5470    2.0663    0.0000 C   0  0  0  0  0  0  0  0  0
  1  2  1  0  0  0  0
  1 21  1  0  0  0  0
  1 22  1  0  0  0  0
  2  3  1  0  0  0  0
  3  4  1  0  0  0  0
  3 20  1  0  0  0  0
  4  5  1  0  0  0  0
  5  6  1  0  0  0  0
  5 11  1  0  0  0  0
  6  7  4  0  0  0  0
  6 19  4  0  0  0  0
  7  8  1  0  0  0  0
  7 16  4  0  0  0  0
  8  9  1  0  0  0  0
  9 10  1  0  0  0  0
 10 11  4  0  0  0  0
 10 15  4  0  0  0  0
 11 12  4  0  0  0  0
 12 13  4  0  0  0  0
 13 14  4  0  0  0  0
 14 15  4  0  0  0  0
 16 17  4  0  0  0  0
 17 18  4  0  0  0  0
 18 19  4  0  0  0  0
M  END
>  <Name_Molregno>
butriptyline

>  <Dopamine transporter>
5.4

>  <Norepinephrine transporter>
5.29

>  <Serotonin transporter>
5.87

$$$$
Cathinone
  Marvin  02231216192D 0   1.00000     0.00000     0

 11 11  0  0  1  0  0  0  0  0999 V2000
    1.9974    0.2298    0.0000 O   0  0  0  0  0  0  0  0  0
    1.2829   -0.1827    0.0000 C   0  0  0  0  0  0  0  0  0
    0.5684    0.2298    0.0000 C   0  0  0  0  0  0  0  0  0
    0.5684    1.0548    0.0000 N   0  0  0  0  0  0  0  0  0
   -0.1461   -0.1827    0.0000 C   0  0  0  0  0  0  0  0  0
    1.2829   -1.0077    0.0000 C   0  0  0  0  0  0  0  0  0
    1.9974   -1.4202    0.0000 C   0  0  0  0  0  0  0  0  0
    1.9974   -2.2452    0.0000 C   0  0  0  0  0  0  0  0  0
    1.2829   -2.6577    0.0000 C   0  0  0  0  0  0  0  0  0
    0.5684   -2.2452    0.0000 C   0  0  0  0  0  0  0  0  0
    0.5684   -1.4202    0.0000 C   0  0  0  0  0  0  0  0  0
  1  2  2  0  0  0  0
  2  3  1  0  0  0  0
  2  6  1  0  0  0  0
  3  4  1  0  0  0  0
  3  5  1  0  0  0  0
  6  7  4  0  0  0  0
  6 11  4  0  0  0  0
  7  8  4  0  0  0  0
  8  9  4  0  0  0  0
  9 10  4  0  0  0  0
 10 11  4  0  0  0  0
M  END
>  <Name_Molregno>
Cathinone

>  <5-HT1A>
5

>  <5-HT1B>
5

>  <5-HT1D>
5

>  <5-HT1E>
5

>  <5-HT3>
5

>  <5-HT5>
5

>  <5-HT6>
5

>  <5-HT7>
5.57

>  <Alpha-1A>
5

>  <Alpha-1B>
5

>  <Alpha-2A>
5.17

>  <Alpha-2B>
6.04

>  <Alpha-2C>
6.12

>  <Beta-1>
5

>  <Beta-2>
5

>  <DOPAMINE D1>
5

>  <DOPAMINE D2>
5

>  <DOPAMINE D4>
5

>  <DOPAMINE D5>
5

>  <Dopamine transporter>
6.37

>  <HISTAMINE H1>
5

>  <HISTAMINE H2>
5

>  <HISTAMINE H4>
5

>  <Muscarinic acetylcholine receptor M1>
5

>  <Muscarinic acetylcholine receptor M2>
5

>  <Muscarinic acetylcholine receptor M3>
5

>  <Muscarinic acetylcholine receptor M4>
5

>  <Muscarinic acetylcholine receptor M5>
5

>  <Norepinephrine transporter>
6.76

>  <Serotonin transporter>
5.32

$$$$
CELECOXIB
  Marvin  02231216192D 0   1.00000     0.00000     0

 26 28  0  0  0  0  0  0  0  0999 V2000
   -2.2304    2.3034    0.0000 S   0  0  0  0  0  0  0  0  0
   -2.2304    3.1284    0.0000 O   0  0  0  0  0  0  0  0  0
   -3.0554    2.3034    0.0000 O   0  0  0  0  0  0  0  0  0
   -1.4054    2.3034    0.0000 N   0  0  0  0  0  0  0  0  0
   -2.2304    1.4784    0.0000 C   0  0  0  0  0  0  0  0  0
   -1.5159    1.0659    0.0000 C   0  0  0  0  0  0  0  0  0
   -1.5159    0.2409    0.0000 C   0  0  0  0  0  0  0  0  0
   -2.2304   -0.1716    0.0000 C   0  0  0  0  0  0  0  0  0
   -2.2304   -0.9966    0.0000 N   0  0  0  0  0  0  0  0  0
   -1.5629   -1.4815    0.0000 N   0  0  0  0  0  0  0  0  0
   -1.8179   -2.2662    0.0000 C   0  0  0  0  0  0  0  0  0
   -2.6429   -2.2662    0.0000 C   0  0  0  0  0  0  0  0  0
   -2.8978   -1.4815    0.0000 C   0  0  0  0  0  0  0  0  0
   -3.6824   -1.2266    0.0000 C   0  0  0  0  0  0  0  0  0
   -4.2955   -1.7786    0.0000 C   0  0  0  0  0  0  0  0  0
   -5.0802   -1.5237    0.0000 C   0  0  0  0  0  0  0  0  0
   -5.2517   -0.7167    0.0000 C   0  0  0  0  0  0  0  0  0
   -4.6386   -0.1647    0.0000 C   0  0  0  0  0  0  0  0  0
   -3.8540   -0.4196    0.0000 C   0  0  0  0  0  0  0  0  0
   -6.0363   -0.4618    0.0000 C   0  0  0  0  0  0  0  0  0
   -1.3330   -2.9336    0.0000 C   0  0  0  0  0  0  0  0  0
   -0.8480   -3.6010    0.0000 F   0  0  0  0  0  0  0  0  0
   -2.0004   -3.4185    0.0000 F   0  0  0  0  0  0  0  0  0
   -0.6655   -2.4487    0.0000 F   0  0  0  0  0  0  0  0  0
   -2.9448    0.2409    0.0000 C   0  0  0  0  0  0  0  0  0
   -2.9448    1.0659    0.0000 C   0  0  0  0  0  0  0  0  0
  1  2  2  0  0  0  0
  1  3  2  0  0  0  0
  1  4  1  0  0  0  0
  1  5  1  0  0  0  0
  5  6  4  0  0  0  0
  5 26  4  0  0  0  0
  6  7  4  0  0  0  0
  7  8  4  0  0  0  0
  8  9  1  0  0  0  0
  8 25  4  0  0  0  0
  9 10  4  0  0  0  0
  9 13  4  0  0  0  0
 10 11  4  0  0  0  0
 11 12  4  0  0  0  0
 11 21  1  0  0  0  0
 12 13  4  0  0  0  0
 13 14  1  0  0  0  0
 14 15  4  0  0  0  0
 14 19  4  0  0  0  0
 15 16  4  0  0  0  0
 16 17  4  0  0  0  0
 17 18  4  0  0  0  0
 17 20  1  0  0  0  0
 18 19  4  0  0  0  0
 21 22  1  0  0  0  0
 21 23  1  0  0  0  0
 21 24  1  0  0  0  0
 25 26  4  0  0  0  0
M  END
>  <Name_Molregno>
CELECOXIB

>  <5-HT1A>
5

>  <5-HT1B>
5

>  <5-HT1D>
5

>  <5-HT1E>
5

>  <5-HT2A>
5

>  <5-HT3>
5

>  <5-HT6>
5

>  <5-HT7>
5

>  <Alpha-1A>
5

>  <Alpha-1B>
5

>  <Alpha-2A>
5

>  <Alpha-2B>
5

>  <Alpha-2C>
5

>  <DOPAMINE D1>
5

>  <DOPAMINE D2>
5

>  <DOPAMINE D4>
5

>  <DOPAMINE D5>
5

>  <Dopamine transporter>
6.18

>  <HISTAMINE H1>
5

>  <HISTAMINE H2>
5

>  <Muscarinic acetylcholine receptor M2>
5

>  <Muscarinic acetylcholine receptor M5>
5

>  <Norepinephrine transporter>
5

>  <Serotonin transporter>
5

$$$$
CHLORIMIPRAMINE
  Marvin  02231216192D 0   1.00000     0.00000     0

 22 24  0  0  0  0  0  0  0  0999 V2000
   -3.6433    1.4834    0.0000 Cl  0  0  0  0  0  0  0  0  0
   -3.8269    0.6791    0.0000 C   0  0  0  0  0  0  0  0  0
   -3.2221    0.1179    0.0000 C   0  0  0  0  0  0  0  0  0
   -3.4057   -0.6864    0.0000 C   0  0  0  0  0  0  0  0  0
   -2.7241   -1.1511    0.0000 N   0  0  0  0  0  0  0  0  0
   -2.6624   -1.9738    0.0000 C   0  0  0  0  0  0  0  0  0
   -3.2672   -2.5350    0.0000 C   0  0  0  0  0  0  0  0  0
   -4.0830   -2.4120    0.0000 C   0  0  0  0  0  0  0  0  0
   -4.4955   -1.6975    0.0000 C   0  0  0  0  0  0  0  0  0
   -4.1941   -0.9296    0.0000 C   0  0  0  0  0  0  0  0  0
   -4.7988   -0.3684    0.0000 C   0  0  0  0  0  0  0  0  0
   -4.6153    0.4359    0.0000 C   0  0  0  0  0  0  0  0  0
   -3.0836   -3.3393    0.0000 C   0  0  0  0  0  0  0  0  0
   -2.2953   -3.5825    0.0000 C   0  0  0  0  0  0  0  0  0
   -1.6905   -3.0213    0.0000 C   0  0  0  0  0  0  0  0  0
   -1.8741   -2.2170    0.0000 C   0  0  0  0  0  0  0  0  0
   -2.0096   -0.7386    0.0000 C   0  0  0  0  0  0  0  0  0
   -1.2951   -1.1511    0.0000 C   0  0  0  0  0  0  0  0  0
   -0.5807   -0.7386    0.0000 C   0  0  0  0  0  0  0  0  0
    0.1338   -1.1511    0.0000 N   0  0  0  0  0  0  0  0  0
    0.8483   -0.7386    0.0000 C   0  0  0  0  0  0  0  0  0
    0.1338   -1.9761    0.0000 C   0  0  0  0  0  0  0  0  0
  1  2  1  0  0  0  0
  2  3  4  0  0  0  0
  2 12  4  0  0  0  0
  3  4  4  0  0  0  0
  4  5  1  0  0  0  0
  4 10  4  0  0  0  0
  5  6  1  0  0  0  0
  5 17  1  0  0  0  0
  6  7  4  0  0  0  0
  6 16  4  0  0  0  0
  7  8  1  0  0  0  0
  7 13  4  0  0  0  0
  8  9  1  0  0  0  0
  9 10  1  0  0  0  0
 10 11  4  0  0  0  0
 11 12  4  0  0  0  0
 13 14  4  0  0  0  0
 14 15  4  0  0  0  0
 15 16  4  0  0  0  0
 17 18  1  0  0  0  0
 18 19  1  0  0  0  0
 19 20  1  0  0  0  0
 20 21  1  0  0  0  0
 20 22  1  0  0  0  0
M  END
>  <Name_Molregno>
CHLORIMIPRAMINE

>  <5-HT1A>
5

>  <5-HT1B>
5

>  <5-HT1D>
5

>  <5-HT2A>
7.45

>  <5-HT2C>
7.19

>  <Alpha-1A>
8.49

>  <Alpha-2A>
6.28

>  <DOPAMINE D1>
6.66

>  <DOPAMINE D2>
6.95

>  <DOPAMINE D3>
7.41

>  <Dopamine transporter>
5.61

>  <Norepinephrine transporter>
7.37

>  <Serotonin transporter>
9.81

$$$$
CHLOROPHENYLPIPERAZINE
  Marvin  02231216192D 0   1.00000     0.00000     0

 13 14  0  0  0  0  0  0  0  0999 V2000
    1.2605    1.9269    0.0000 Cl  0  0  0  0  0  0  0  0  0
    1.2605    1.1019    0.0000 C   0  0  0  0  0  0  0  0  0
    1.9750    0.6894    0.0000 C   0  0  0  0  0  0  0  0  0
    1.9750   -0.1356    0.0000 C   0  0  0  0  0  0  0  0  0
    2.6894   -0.5481    0.0000 N   0  0  0  0  0  0  0  0  0
    3.4039   -0.1356    0.0000 C   0  0  0  0  0  0  0  0  0
    4.1184   -0.5481    0.0000 C   0  0  0  0  0  0  0  0  0
    4.1184   -1.3731    0.0000 N   0  0  0  0  0  0  0  0  0
    3.4039   -1.7856    0.0000 C   0  0  0  0  0  0  0  0  0
    2.6894   -1.3731    0.0000 C   0  0  0  0  0  0  0  0  0
    1.2605   -0.5481    0.0000 C   0  0  0  0  0  0  0  0  0
    0.5460   -0.1356    0.0000 C   0  0  0  0  0  0  0  0  0
    0.5460    0.6894    0.0000 C   0  0  0  0  0  0  0  0  0
  1  2  1  0  0  0  0
  2  3  4  0  0  0  0
  2 13  4  0  0  0  0
  3  4  4  0  0  0  0
  4  5  1  0  0  0  0
  4 11  4  0  0  0  0
  5  6  1  0  0  0  0
  5 10  1  0  0  0  0
  6  7  1  0  0  0  0
  7  8  1  0  0  0  0
  8  9  1  0  0  0  0
  9 10  1  0  0  0  0
 11 12  4  0  0  0  0
 12 13  4  0  0  0  0
M  END
>  <Name_Molregno>
CHLOROPHENYLPIPERAZINE

>  <5-HT1A>
6.88

>  <5-HT1B>
6.72

>  <5-HT1D>
6.23

>  <5-HT2A>
7.01

>  <5-HT2C>
7.55

>  <5-HT3>
6.37

>  <5-HT5>
5.87

>  <5-HT6>
5.7

>  <5-HT7>
6.79

>  <Alpha-1A>
5.86

>  <Alpha-1B>
6.04

>  <Alpha-2A>
6.84

>  <Alpha-2B>
6.98

>  <Alpha-2C>
6.91

>  <Beta-1>
5.63

>  <Beta-2>
5.46

>  <DOPAMINE D1>
5.15

>  <DOPAMINE D2>
5

>  <DOPAMINE D5>
5

>  <HISTAMINE H1>
6.49

>  <Norepinephrine transporter>
5.36

>  <Serotonin transporter>
6.13

$$$$
CHLORPROMAZINE
  Marvin  02231216192D 0   1.00000     0.00000     0

 21 23  0  0  0  0  0  0  0  0999 V2000
   -1.3730   -3.5598    0.0000 Cl  0  0  0  0  0  0  0  0  0
   -2.0875   -3.1473    0.0000 C   0  0  0  0  0  0  0  0  0
   -2.0875   -2.3223    0.0000 C   0  0  0  0  0  0  0  0  0
   -2.8019   -1.9098    0.0000 C   0  0  0  0  0  0  0  0  0
   -2.8019   -1.0848    0.0000 N   0  0  0  0  0  0  0  0  0
   -3.5164   -0.6723    0.0000 C   0  0  0  0  0  0  0  0  0
   -4.2309   -1.0848    0.0000 C   0  0  0  0  0  0  0  0  0
   -4.2309   -1.9098    0.0000 S   0  0  0  0  0  0  0  0  0
   -3.5164   -2.3223    0.0000 C   0  0  0  0  0  0  0  0  0
   -3.5164   -3.1473    0.0000 C   0  0  0  0  0  0  0  0  0
   -2.8019   -3.5598    0.0000 C   0  0  0  0  0  0  0  0  0
   -4.9453   -0.6723    0.0000 C   0  0  0  0  0  0  0  0  0
   -4.9453    0.1527    0.0000 C   0  0  0  0  0  0  0  0  0
   -4.2309    0.5652    0.0000 C   0  0  0  0  0  0  0  0  0
   -3.5164    0.1527    0.0000 C   0  0  0  0  0  0  0  0  0
   -2.0875   -0.6723    0.0000 C   0  0  0  0  0  0  0  0  0
   -1.3730   -1.0848    0.0000 C   0  0  0  0  0  0  0  0  0
   -0.6585   -0.6723    0.0000 C   0  0  0  0  0  0  0  0  0
    0.0560   -1.0848    0.0000 N   0  0  0  0  0  0  0  0  0
    0.7704   -0.6723    0.0000 C   0  0  0  0  0  0  0  0  0
    0.0560   -1.9098    0.0000 C   0  0  0  0  0  0  0  0  0
  1  2  1  0  0  0  0
  2  3  4  0  0  0  0
  2 11  4  0  0  0  0
  3  4  4  0  0  0  0
  4  5  1  0  0  0  0
  4  9  4  0  0  0  0
  5  6  1  0  0  0  0
  5 16  1  0  0  0  0
  6  7  4  0  0  0  0
  6 15  4  0  0  0  0
  7  8  1  0  0  0  0
  7 12  4  0  0  0  0
  8  9  1  0  0  0  0
  9 10  4  0  0  0  0
 10 11  4  0  0  0  0
 12 13  4  0  0  0  0
 13 14  4  0  0  0  0
 14 15  4  0  0  0  0
 16 17  1  0  0  0  0
 17 18  1  0  0  0  0
 18 19  1  0  0  0  0
 19 20  1  0  0  0  0
 19 21  1  0  0  0  0
M  END
>  <Name_Molregno>
CHLORPROMAZINE

>  <5-HT1A>
5.98

>  <5-HT1B>
5.83

>  <5-HT1D>
6.34

>  <5-HT1E>
6.46

>  <5-HT2A>
8.36

>  <5-HT2C>
7.74

>  <5-HT3>
6.01

>  <5-HT5>
6.93

>  <5-HT6>
7.59

>  <5-HT7>
7.54

>  <Alpha-1A>
9.55

>  <Alpha-1B>
9.09

>  <Alpha-2A>
6.71

>  <Alpha-2B>
7.81

>  <Alpha-2C>
7.36

>  <Beta-1>
5

>  <Beta-2>
5

>  <DOPAMINE D1>
7.1

>  <DOPAMINE D2>
8.51

>  <DOPAMINE D3>
8.58

>  <DOPAMINE D4>
8.03

>  <DOPAMINE D5>
6.82

>  <Dopamine transporter>
5

>  <HISTAMINE H1>
8.47

>  <HISTAMINE H2>
6.76

>  <HISTAMINE H3>
6

>  <HISTAMINE H4>
6.3

>  <Muscarinic acetylcholine receptor M1>
7.36

>  <Muscarinic acetylcholine receptor M2>
6.67

>  <Muscarinic acetylcholine receptor M3>
7.25

>  <Muscarinic acetylcholine receptor M4>
7.11

>  <Muscarinic acetylcholine receptor M5>
7.5

>  <Norepinephrine transporter>
5.61

>  <Serotonin transporter>
6.54

$$$$
cis-Thiothixene
  Marvin  02231216192D 0   1.00000     0.00000     0

 30 33  0  0  0  0  0  0  0  0999 V2000
    1.0940   -3.6931    0.0000 S   0  0  0  0  0  0  0  0  0
    1.8085   -3.2806    0.0000 C   0  0  0  0  0  0  0  0  0
    1.8085   -2.4556    0.0000 C   0  0  0  0  0  0  0  0  0
    2.5230   -2.0431    0.0000 C   0  0  0  0  0  0  0  0  0
    3.2375   -2.4556    0.0000 C   0  0  0  0  0  0  0  0  0
    3.9519   -2.0431    0.0000 S   0  0  0  0  0  0  0  0  0
    3.5394   -1.3286    0.0000 O   0  0  0  0  0  0  0  0  0
    4.3644   -2.7575    0.0000 O   0  0  0  0  0  0  0  0  0
    4.6664   -1.6306    0.0000 N   0  0  0  0  0  0  0  0  0
    5.3809   -2.0431    0.0000 C   0  0  0  0  0  0  0  0  0
    4.6664   -0.8056    0.0000 C   0  0  0  0  0  0  0  0  0
    3.2375   -3.2806    0.0000 C   0  0  0  0  0  0  0  0  0
    2.5230   -3.6931    0.0000 C   0  0  0  0  0  0  0  0  0
    1.0940   -2.0431    0.0000 C   0  0  0  0  0  0  0  0  0
    0.3796   -2.4556    0.0000 C   0  0  0  0  0  0  0  0  0
    0.3796   -3.2806    0.0000 C   0  0  0  0  0  0  0  0  0
   -0.3349   -3.6931    0.0000 C   0  0  0  0  0  0  0  0  0
   -1.0494   -3.2806    0.0000 C   0  0  0  0  0  0  0  0  0
   -1.0494   -2.4556    0.0000 C   0  0  0  0  0  0  0  0  0
   -0.3349   -2.0431    0.0000 C   0  0  0  0  0  0  0  0  0
    1.0940   -1.2181    0.0000 C   0  0  0  0  0  0  0  0  0
    0.3796   -0.8056    0.0000 C   0  0  0  0  0  0  0  0  0
   -0.3349   -1.2181    0.0000 C   0  0  0  0  0  0  0  0  0
   -1.0494   -0.8056    0.0000 N   0  0  0  0  0  0  0  0  0
   -1.7638   -1.2181    0.0000 C   0  0  0  0  0  0  0  0  0
   -2.4783   -0.8056    0.0000 C   0  0  0  0  0  0  0  0  0
   -2.4783    0.0194    0.0000 N   0  0  0  0  0  0  0  0  0
   -1.7638    0.4319    0.0000 C   0  0  0  0  0  0  0  0  0
   -1.0494    0.0194    0.0000 C   0  0  0  0  0  0  0  0  0
   -3.1928    0.4319    0.0000 C   0  0  0  0  0  0  0  0  0
  1  2  1  0  0  0  0
  1 16  1  0  0  0  0
  2  3  4  0  0  0  0
  2 13  4  0  0  0  0
  3  4  4  0  0  0  0
  3 14  1  0  0  0  0
  4  5  4  0  0  0  0
  5  6  1  0  0  0  0
  5 12  4  0  0  0  0
  6  7  2  0  0  0  0
  6  8  2  0  0  0  0
  6  9  1  0  0  0  0
  9 10  1  0  0  0  0
  9 11  1  0  0  0  0
 12 13  4  0  0  0  0
 14 15  1  0  0  0  0
 14 21  2  0  0  0  0
 15 16  4  0  0  0  0
 15 20  4  0  0  0  0
 16 17  4  0  0  0  0
 17 18  4  0  0  0  0
 18 19  4  0  0  0  0
 19 20  4  0  0  0  0
 21 22  1  0  0  0  0
 22 23  1  0  0  0  0
 23 24  1  0  0  0  0
 24 25  1  0  0  0  0
 24 29  1  0  0  0  0
 25 26  1  0  0  0  0
 26 27  1  0  0  0  0
 27 28  1  0  0  0  0
 27 30  1  0  0  0  0
 28 29  1  0  0  0  0
M  END
>  <Name_Molregno>
cis-Thiothixene

>  <5-HT1A>
6.39

>  <5-HT1B>
6.82

>  <5-HT1D>
6.18

>  <5-HT1E>
5

>  <5-HT2A>
7.42

>  <5-HT2C>
5.87

>  <5-HT3>
5.73

>  <5-HT5>
6.44

>  <5-HT6>
6.62

>  <5-HT7>
7.82

>  <Alpha-1A>
7.94

>  <Alpha-1B>
7.46

>  <Alpha-2A>
7.1

>  <Alpha-2B>
7.3

>  <Alpha-2C>
7.28

>  <Beta-1>
5

>  <Beta-2>
5

>  <DOPAMINE D1>
7.29

>  <DOPAMINE D2>
9.56

>  <DOPAMINE D3>
9.41

>  <DOPAMINE D4>
6.86

>  <DOPAMINE D5>
6.58

>  <Dopamine transporter>
5

>  <HISTAMINE H1>
8.23

>  <HISTAMINE H2>
6.39

>  <HISTAMINE H4>
5

>  <Muscarinic acetylcholine receptor M1>
5.3

>  <Muscarinic acetylcholine receptor M2>
5.34

>  <Muscarinic acetylcholine receptor M3>
5.27

>  <Muscarinic acetylcholine receptor M4>
5.4

>  <Muscarinic acetylcholine receptor M5>
5.32

>  <Norepinephrine transporter>
5

>  <Serotonin transporter>
5.41

$$$$
CITALOPRAM
  Marvin  02231216192D 0   1.00000     0.00000     0

 24 26  0  0  1  0  0  0  0  0999 V2000
   -2.6333   -5.3696    0.0000 F   0  0  0  0  0  0  0  0  0
   -2.2977   -4.6160    0.0000 C   0  0  0  0  0  0  0  0  0
   -2.7827   -3.9485    0.0000 C   0  0  0  0  0  0  0  0  0
   -2.4471   -3.1948    0.0000 C   0  0  0  0  0  0  0  0  0
   -1.6266   -3.1086    0.0000 C   0  0  0  0  0  0  0  0  0
   -1.1417   -3.7760    0.0000 C   0  0  0  0  0  0  0  0  0
   -1.4772   -4.5297    0.0000 C   0  0  0  0  0  0  0  0  0
   -1.2911   -2.3549    0.0000 C   0  0  0  0  0  0  0  0  0
   -0.8061   -1.6875    0.0000 O   0  0  0  0  0  0  0  0  0
   -1.2911   -1.0201    0.0000 C   0  0  0  0  0  0  0  0  0
   -2.0757   -1.2750    0.0000 C   0  0  0  0  0  0  0  0  0
   -2.0757   -2.1000    0.0000 C   0  0  0  0  0  0  0  0  0
   -2.7901   -2.5125    0.0000 C   0  0  0  0  0  0  0  0  0
   -3.5046   -2.1000    0.0000 C   0  0  0  0  0  0  0  0  0
   -3.5046   -1.2750    0.0000 C   0  0  0  0  0  0  0  0  0
   -2.7901   -0.8625    0.0000 C   0  0  0  0  0  0  0  0  0
   -4.2191   -0.8625    0.0000 C   0  0  0  0  0  0  0  0  0
   -4.9336   -0.4500    0.0000 N   0  0  0  0  0  0  0  0  0
   -0.5766   -2.7674    0.0000 C   0  0  0  0  0  0  0  0  0
    0.1379   -2.3549    0.0000 C   0  0  0  0  0  0  0  0  0
    0.8524   -2.7674    0.0000 C   0  0  0  0  0  0  0  0  0
    1.5668   -2.3549    0.0000 N   0  0  0  0  0  0  0  0  0
    1.5668   -1.5299    0.0000 C   0  0  0  0  0  0  0  0  0
    2.2813   -2.7674    0.0000 C   0  0  0  0  0  0  0  0  0
  1  2  1  0  0  0  0
  2  3  4  0  0  0  0
  2  7  4  0  0  0  0
  3  4  4  0  0  0  0
  4  5  4  0  0  0  0
  5  6  4  0  0  0  0
  5  8  1  0  0  0  0
  6  7  4  0  0  0  0
  8  9  1  0  0  0  0
  8 12  1  0  0  0  0
  8 19  1  0  0  0  0
  9 10  1  0  0  0  0
 10 11  1  0  0  0  0
 11 12  4  0  0  0  0
 11 16  4  0  0  0  0
 12 13  4  0  0  0  0
 13 14  4  0  0  0  0
 14 15  4  0  0  0  0
 15 16  4  0  0  0  0
 15 17  1  0  0  0  0
 17 18  3  0  0  0  0
 19 20  1  0  0  0  0
 20 21  1  0  0  0  0
 21 22  1  0  0  0  0
 22 23  1  0  0  0  0
 22 24  1  0  0  0  0
M  END
>  <Name_Molregno>
CITALOPRAM

>  <5-HT1A>
5

>  <5-HT1B>
5

>  <5-HT1D>
5

>  <5-HT2A>
5.1

>  <5-HT2C>
6.21

>  <Alpha-1A>
5

>  <Alpha-2A>
5

>  <DOPAMINE D2>
5

>  <DOPAMINE D3>
5

>  <Dopamine transporter>
5

>  <Muscarinic acetylcholine receptor M1>
5.88

>  <Norepinephrine transporter>
5.17

>  <Serotonin transporter>
8.45

$$$$
CLONIDINE
  Marvin  02231216192D 0   1.00000     0.00000     0

 14 15  0  0  0  0  0  0  0  0999 V2000
   -2.4456   -1.4014    0.0000 Cl  0  0  0  0  0  0  0  0  0
   -2.4456   -0.5764    0.0000 C   0  0  0  0  0  0  0  0  0
   -3.1600   -0.1639    0.0000 C   0  0  0  0  0  0  0  0  0
   -3.1600    0.6611    0.0000 C   0  0  0  0  0  0  0  0  0
   -2.4456    1.0736    0.0000 C   0  0  0  0  0  0  0  0  0
   -1.7311    0.6611    0.0000 C   0  0  0  0  0  0  0  0  0
   -1.0166    1.0736    0.0000 Cl  0  0  0  0  0  0  0  0  0
   -1.7311   -0.1639    0.0000 C   0  0  0  0  0  0  0  0  0
   -1.0166   -0.5764    0.0000 N   0  0  0  0  0  0  0  0  0
   -1.0166   -1.4014    0.0000 C   0  0  0  0  0  0  0  0  0
   -0.3492   -1.8863    0.0000 N   0  0  0  0  0  0  0  0  0
   -0.6041   -2.6709    0.0000 C   0  0  0  0  0  0  0  0  0
   -1.4291   -2.6709    0.0000 C   0  0  0  0  0  0  0  0  0
   -1.6841   -1.8863    0.0000 N   0  0  0  0  0  0  0  0  0
  1  2  1  0  0  0  0
  2  3  4  0  0  0  0
  2  8  4  0  0  0  0
  3  4  4  0  0  0  0
  4  5  4  0  0  0  0
  5  6  4  0  0  0  0
  6  7  1  0  0  0  0
  6  8  4  0  0  0  0
  8  9  1  0  0  0  0
  9 10  1  0  0  0  0
 10 11  1  0  0  0  0
 10 14  2  0  0  0  0
 11 12  1  0  0  0  0
 12 13  1  0  0  0  0
 13 14  1  0  0  0  0
M  END
>  <Name_Molregno>
CLONIDINE

>  <5-HT2A>
5

>  <Alpha-1A>
6.4

>  <Alpha-1B>
6.4

>  <Alpha-2A>
7.33

>  <Alpha-2B>
7.3

>  <Alpha-2C>
6.94

>  <Norepinephrine transporter>
6

$$$$
CLOZAPINE
  Marvin  02231216192D 0   1.00000     0.00000     0

 23 26  0  0  0  0  0  0  0  0999 V2000
   -0.5622   -2.2603    0.0000 Cl  0  0  0  0  0  0  0  0  0
    0.2262   -2.5035    0.0000 C   0  0  0  0  0  0  0  0  0
    0.8309   -1.9424    0.0000 C   0  0  0  0  0  0  0  0  0
    1.6193   -2.1855    0.0000 C   0  0  0  0  0  0  0  0  0
    2.1337   -1.5405    0.0000 N   0  0  0  0  0  0  0  0  0
    2.9587   -1.5405    0.0000 C   0  0  0  0  0  0  0  0  0
    3.3166   -0.7972    0.0000 N   0  0  0  0  0  0  0  0  0
    2.8519   -0.1156    0.0000 C   0  0  0  0  0  0  0  0  0
    3.2098    0.6277    0.0000 C   0  0  0  0  0  0  0  0  0
    4.0325    0.6894    0.0000 N   0  0  0  0  0  0  0  0  0
    4.4973    0.0077    0.0000 C   0  0  0  0  0  0  0  0  0
    4.1393   -0.7356    0.0000 C   0  0  0  0  0  0  0  0  0
    4.3905    1.4327    0.0000 C   0  0  0  0  0  0  0  0  0
    3.4730   -2.1855    0.0000 C   0  0  0  0  0  0  0  0  0
    3.2895   -2.9898    0.0000 C   0  0  0  0  0  0  0  0  0
    2.5462   -3.3478    0.0000 N   0  0  0  0  0  0  0  0  0
    1.8029   -2.9898    0.0000 C   0  0  0  0  0  0  0  0  0
    1.1981   -3.5510    0.0000 C   0  0  0  0  0  0  0  0  0
    0.4098   -3.3078    0.0000 C   0  0  0  0  0  0  0  0  0
    3.8942   -3.5510    0.0000 C   0  0  0  0  0  0  0  0  0
    4.6826   -3.3078    0.0000 C   0  0  0  0  0  0  0  0  0
    4.8662   -2.5035    0.0000 C   0  0  0  0  0  0  0  0  0
    4.2614   -1.9424    0.0000 C   0  0  0  0  0  0  0  0  0
  1  2  1  0  0  0  0
  2  3  4  0  0  0  0
  2 19  4  0  0  0  0
  3  4  4  0  0  0  0
  4  5  1  0  0  0  0
  4 17  4  0  0  0  0
  5  6  1  0  0  0  0
  6  7  1  0  0  0  0
  6 14  2  0  0  0  0
  7  8  1  0  0  0  0
  7 12  1  0  0  0  0
  8  9  1  0  0  0  0
  9 10  1  0  0  0  0
 10 11  1  0  0  0  0
 10 13  1  0  0  0  0
 11 12  1  0  0  0  0
 14 15  1  0  0  0  0
 14 23  1  0  0  0  0
 15 16  2  0  0  0  0
 15 20  1  0  0  0  0
 16 17  1  0  0  0  0
 17 18  4  0  0  0  0
 18 19  4  0  0  0  0
 20 21  2  0  0  0  0
 21 22  1  0  0  0  0
 22 23  2  0  0  0  0
M  END
>  <Name_Molregno>
CLOZAPINE

>  <5-HT1A>
6.88

>  <5-HT1B>
6.33

>  <5-HT1D>
6.27

>  <5-HT1E>
6.19

>  <5-HT2A>
8.22

>  <5-HT2C>
8

>  <5-HT3>
6.62

>  <5-HT5>
5.41

>  <5-HT6>
7.9

>  <5-HT7>
8.05

>  <Alpha-1A>
8.8

>  <Alpha-1B>
8.15

>  <Alpha-2A>
7.15

>  <Alpha-2B>
7.61

>  <Alpha-2C>
7.88

>  <Beta-1>
5.15

>  <Beta-2>
5.39

>  <DOPAMINE D1>
6.69

>  <DOPAMINE D2>
6.9

>  <DOPAMINE D3>
6.62

>  <DOPAMINE D4>
7.62

>  <DOPAMINE D5>
6.62

>  <Dopamine transporter>
5

>  <HISTAMINE H1>
8.81

>  <HISTAMINE H2>
6.82

>  <HISTAMINE H3>
5.25

>  <HISTAMINE H4>
6.15

>  <Muscarinic acetylcholine receptor M1>
8.26

>  <Muscarinic acetylcholine receptor M2>
7.17

>  <Muscarinic acetylcholine receptor M3>
7.59

>  <Muscarinic acetylcholine receptor M4>
7.85

>  <Muscarinic acetylcholine receptor M5>
7.79

>  <Norepinephrine transporter>
5.5

>  <Serotonin transporter>
5.73

$$$$
D-cystine
  Marvin  02231216192D 0   1.00000     0.00000     0

 14 13  0  0  1  0  0  0  0  0999 V2000
    0.5597    0.5534    0.0000 S   0  0  0  0  0  0  0  0  0
   -0.1548    0.1409    0.0000 S   0  0  0  0  0  0  0  0  0
   -0.8693    0.5534    0.0000 C   0  0  0  0  0  0  0  0  0
   -1.5838    0.1409    0.0000 C   0  0  0  0  0  0  0  0  0
   -1.5838   -0.6841    0.0000 N   0  0  0  0  0  0  0  0  0
   -2.2982    0.5534    0.0000 C   0  0  0  0  0  0  0  0  0
   -3.0127    0.1409    0.0000 O   0  0  0  0  0  0  0  0  0
   -2.2982    1.3784    0.0000 O   0  0  0  0  0  0  0  0  0
    1.2741    0.1409    0.0000 C   0  0  0  0  0  0  0  0  0
    1.9886    0.5534    0.0000 C   0  0  0  0  0  0  0  0  0
    1.9886    1.3784    0.0000 N   0  0  0  0  0  0  0  0  0
    2.7031    0.1409    0.0000 C   0  0  0  0  0  0  0  0  0
    3.4175    0.5534    0.0000 O   0  0  0  0  0  0  0  0  0
    2.7031   -0.6841    0.0000 O   0  0  0  0  0  0  0  0  0
  1  2  1  0  0  0  0
  1  9  1  0  0  0  0
  2  3  1  0  0  0  0
  3  4  1  0  0  0  0
  4  5  1  0  0  0  0
  4  6  1  0  0  0  0
  6  7  1  0  0  0  0
  6  8  2  0  0  0  0
  9 10  1  0  0  0  0
 10 11  1  0  0  0  0
 10 12  1  0  0  0  0
 12 13  1  0  0  0  0
 12 14  2  0  0  0  0
M  END
>  <Name_Molregno>
D-cystine

>  <5-HT1A>
5

>  <5-HT1B>
5

>  <5-HT1D>
5

>  <5-HT3>
5

>  <5-HT5>
5

>  <5-HT6>
5

>  <5-HT7>
5

>  <Alpha-1A>
5

>  <Alpha-1B>
5

>  <Alpha-2A>
5

>  <Alpha-2B>
5

>  <Alpha-2C>
5

>  <DOPAMINE D1>
5

>  <DOPAMINE D2>
5

>  <DOPAMINE D3>
5

>  <DOPAMINE D5>
5

>  <Dopamine transporter>
5

>  <HISTAMINE H1>
5

>  <HISTAMINE H2>
5

>  <HISTAMINE H4>
5

>  <Muscarinic acetylcholine receptor M1>
5

>  <Muscarinic acetylcholine receptor M2>
5

>  <Muscarinic acetylcholine receptor M3>
5

>  <Muscarinic acetylcholine receptor M4>
5

>  <Muscarinic acetylcholine receptor M5>
5

>  <Norepinephrine transporter>
5

>  <Serotonin transporter>
5

$$$$
DESIPRAMINE
  Marvin  02231216192D 0   1.00000     0.00000     0

 20 22  0  0  0  0  0  0  0  0999 V2000
   -0.0715   -0.0141    0.0000 N   0  0  0  0  0  0  0  0  0
    0.6430   -0.4266    0.0000 C   0  0  0  0  0  0  0  0  0
    1.3575   -0.0141    0.0000 C   0  0  0  0  0  0  0  0  0
    2.0719   -0.4266    0.0000 C   0  0  0  0  0  0  0  0  0
    2.7864   -0.0141    0.0000 N   0  0  0  0  0  0  0  0  0
    2.7248    0.8086    0.0000 C   0  0  0  0  0  0  0  0  0
    3.3295    1.3697    0.0000 C   0  0  0  0  0  0  0  0  0
    4.1453    1.2468    0.0000 C   0  0  0  0  0  0  0  0  0
    4.5578    0.5323    0.0000 C   0  0  0  0  0  0  0  0  0
    4.2564   -0.2357    0.0000 C   0  0  0  0  0  0  0  0  0
    3.4680   -0.4788    0.0000 C   0  0  0  0  0  0  0  0  0
    3.2845   -1.2831    0.0000 C   0  0  0  0  0  0  0  0  0
    3.8892   -1.8443    0.0000 C   0  0  0  0  0  0  0  0  0
    4.6776   -1.6011    0.0000 C   0  0  0  0  0  0  0  0  0
    4.8612   -0.7968    0.0000 C   0  0  0  0  0  0  0  0  0
    3.1459    2.1741    0.0000 C   0  0  0  0  0  0  0  0  0
    2.3576    2.4172    0.0000 C   0  0  0  0  0  0  0  0  0
    1.7528    1.8561    0.0000 C   0  0  0  0  0  0  0  0  0
    1.9364    1.0518    0.0000 C   0  0  0  0  0  0  0  0  0
   -0.7860   -0.4266    0.0000 C   0  0  0  0  0  0  0  0  0
  1  2  1  0  0  0  0
  1 20  1  0  0  0  0
  2  3  1  0  0  0  0
  3  4  1  0  0  0  0
  4  5  1  0  0  0  0
  5  6  1  0  0  0  0
  5 11  1  0  0  0  0
  6  7  4  0  0  0  0
  6 19  4  0  0  0  0
  7  8  1  0  0  0  0
  7 16  4  0  0  0  0
  8  9  1  0  0  0  0
  9 10  1  0  0  0  0
 10 11  4  0  0  0  0
 10 15  4  0  0  0  0
 11 12  4  0  0  0  0
 12 13  4  0  0  0  0
 13 14  4  0  0  0  0
 14 15  4  0  0  0  0
 16 17  4  0  0  0  0
 17 18  4  0  0  0  0
 18 19  4  0  0  0  0
M  END
>  <Name_Molregno>
DESIPRAMINE

>  <5-HT1A>
5.1

>  <DOPAMINE D1>
5.26

>  <DOPAMINE D2>
5.63

>  <Dopamine transporter>
5.17

>  <HISTAMINE H1>
7.16

>  <Muscarinic acetylcholine receptor M1>
6.96

>  <Muscarinic acetylcholine receptor M2>
6.27

>  <Muscarinic acetylcholine receptor M3>
6.68

>  <Muscarinic acetylcholine receptor M4>
6.8

>  <Muscarinic acetylcholine receptor M5>
6.84

>  <Norepinephrine transporter>
8.66

>  <Serotonin transporter>
7.14

$$$$
Desmethylsertraline
  Marvin  02231216192D 0   1.00000     0.00000     0

 19 21  0  0  1  0  0  0  0  0999 V2000
    3.6862    2.6089    0.0000 Cl  0  0  0  0  0  0  0  0  0
    2.9717    2.1964    0.0000 C   0  0  0  0  0  0  0  0  0
    2.9717    1.3714    0.0000 C   0  0  0  0  0  0  0  0  0
    2.2572    0.9589    0.0000 C   0  0  0  0  0  0  0  0  0
    1.5428    1.3714    0.0000 C   0  0  0  0  0  0  0  0  0
    1.5428    2.1964    0.0000 C   0  0  0  0  0  0  0  0  0
    2.2572    2.6089    0.0000 C   0  0  0  0  0  0  0  0  0
    2.2572    3.4339    0.0000 Cl  0  0  0  0  0  0  0  0  0
    2.2572    0.1339    0.0000 C   0  0  0  0  0  0  0  0  0
    1.5428   -0.2786    0.0000 C   0  0  0  0  0  0  0  0  0
    1.5428   -1.1036    0.0000 C   0  0  0  0  0  0  0  0  0
    2.2572   -1.5161    0.0000 C   0  0  0  0  0  0  0  0  0
    2.2572   -2.3411    0.0000 N   0  0  0  0  0  0  0  0  0
    2.9717   -1.1036    0.0000 C   0  0  0  0  0  0  0  0  0
    2.9717   -0.2786    0.0000 C   0  0  0  0  0  0  0  0  0
    3.6862    0.1339    0.0000 C   0  0  0  0  0  0  0  0  0
    4.4007   -0.2786    0.0000 C   0  0  0  0  0  0  0  0  0
    4.4007   -1.1036    0.0000 C   0  0  0  0  0  0  0  0  0
    3.6862   -1.5161    0.0000 C   0  0  0  0  0  0  0  0  0
  1  2  1  0  0  0  0
  2  3  4  0  0  0  0
  2  7  4  0  0  0  0
  3  4  4  0  0  0  0
  4  5  4  0  0  0  0
  4  9  1  0  0  0  0
  5  6  4  0  0  0  0
  6  7  4  0  0  0  0
  7  8  1  0  0  0  0
  9 10  1  0  0  0  0
  9 15  1  0  0  0  0
 10 11  1  0  0  0  0
 11 12  1  0  0  0  0
 12 13  1  0  0  0  0
 12 14  1  0  0  0  0
 14 15  4  0  0  0  0
 14 19  4  0  0  0  0
 15 16  4  0  0  0  0
 16 17  4  0  0  0  0
 17 18  4  0  0  0  0
 18 19  4  0  0  0  0
M  END
>  <Name_Molregno>
Desmethylsertraline

>  <5-HT1A>
5

>  <DOPAMINE D2>
5

>  <Dopamine transporter>
6.89

>  <HISTAMINE H1>
5.05

>  <Muscarinic acetylcholine receptor M1>
5.78

>  <Muscarinic acetylcholine receptor M2>
5.48

>  <Muscarinic acetylcholine receptor M3>
5.46

>  <Muscarinic acetylcholine receptor M4>
5.51

>  <Muscarinic acetylcholine receptor M5>
5.42

>  <Norepinephrine transporter>
6.04

>  <Serotonin transporter>
7.89

$$$$
Desvenlafaxine
  Marvin  02231216192D 0   1.00000     0.00000     0

 19 20  0  0  1  0  0  0  0  0999 V2000
   -0.7896   -0.8374    0.0000 O   0  0  0  0  0  0  0  0  0
   -0.2593   -1.4694    0.0000 C   0  0  0  0  0  0  0  0  0
    0.4552   -1.8819    0.0000 C   0  0  0  0  0  0  0  0  0
    0.4552   -2.7069    0.0000 C   0  0  0  0  0  0  0  0  0
   -0.2593   -3.1194    0.0000 C   0  0  0  0  0  0  0  0  0
   -0.9738   -2.7069    0.0000 C   0  0  0  0  0  0  0  0  0
   -0.9738   -1.8819    0.0000 C   0  0  0  0  0  0  0  0  0
    0.2710   -0.8374    0.0000 C   0  0  0  0  0  0  0  0  0
   -0.0112   -0.0621    0.0000 C   0  0  0  0  0  0  0  0  0
   -0.8236    0.0811    0.0000 N   0  0  0  0  0  0  0  0  0
   -1.3539   -0.5509    0.0000 C   0  0  0  0  0  0  0  0  0
   -1.1058    0.8564    0.0000 C   0  0  0  0  0  0  0  0  0
    1.0835   -0.9806    0.0000 C   0  0  0  0  0  0  0  0  0
    1.6138   -0.3487    0.0000 C   0  0  0  0  0  0  0  0  0
    2.4262   -0.4919    0.0000 C   0  0  0  0  0  0  0  0  0
    2.7084   -1.2672    0.0000 C   0  0  0  0  0  0  0  0  0
    3.5209   -1.4104    0.0000 O   0  0  0  0  0  0  0  0  0
    2.1781   -1.8992    0.0000 C   0  0  0  0  0  0  0  0  0
    1.3656   -1.7559    0.0000 C   0  0  0  0  0  0  0  0  0
  1  2  1  0  0  0  0
  2  3  1  0  0  0  0
  2  7  1  0  0  0  0
  2  8  1  0  0  0  0
  3  4  1  0  0  0  0
  4  5  1  0  0  0  0
  5  6  1  0  0  0  0
  6  7  1  0  0  0  0
  8  9  1  0  0  0  0
  8 13  1  0  0  0  0
  9 10  1  0  0  0  0
 10 11  1  0  0  0  0
 10 12  1  0  0  0  0
 13 14  4  0  0  0  0
 13 19  4  0  0  0  0
 14 15  4  0  0  0  0
 15 16  4  0  0  0  0
 16 17  1  0  0  0  0
 16 18  4  0  0  0  0
 18 19  4  0  0  0  0
M  END
>  <Name_Molregno>
Desvenlafaxine

>  <DOPAMINE D1>
5

>  <DOPAMINE D2>
5

>  <Dopamine transporter>
5

>  <Muscarinic acetylcholine receptor M1>
5

>  <Muscarinic acetylcholine receptor M2>
5

>  <Muscarinic acetylcholine receptor M3>
5

>  <Muscarinic acetylcholine receptor M4>
5

>  <Muscarinic acetylcholine receptor M5>
5

>  <Norepinephrine transporter>
5.81

>  <Serotonin transporter>
7.44

$$$$
d-Fenfluramine
  Marvin  02231216192D 0   1.00000     0.00000     0

 16 16  0  0  1  0  0  0  0  0999 V2000
   -5.1694    0.5172    0.0000 F   0  0  0  0  0  0  0  0  0
   -4.4549    0.1047    0.0000 C   0  0  0  0  0  0  0  0  0
   -4.8674   -0.6097    0.0000 F   0  0  0  0  0  0  0  0  0
   -4.0424    0.8192    0.0000 F   0  0  0  0  0  0  0  0  0
   -3.7405   -0.3078    0.0000 C   0  0  0  0  0  0  0  0  0
   -3.0260    0.1047    0.0000 C   0  0  0  0  0  0  0  0  0
   -2.3115   -0.3078    0.0000 C   0  0  0  0  0  0  0  0  0
   -2.3115   -1.1328    0.0000 C   0  0  0  0  0  0  0  0  0
   -3.0260   -1.5453    0.0000 C   0  0  0  0  0  0  0  0  0
   -3.7405   -1.1328    0.0000 C   0  0  0  0  0  0  0  0  0
   -1.5971    0.1047    0.0000 C   0  0  0  0  0  0  0  0  0
   -0.8826   -0.3078    0.0000 C   0  0  0  0  0  0  0  0  0
   -0.1681    0.1047    0.0000 N   0  0  0  0  0  0  0  0  0
    0.5464   -0.3078    0.0000 C   0  0  0  0  0  0  0  0  0
    1.2608    0.1047    0.0000 C   0  0  0  0  0  0  0  0  0
   -0.8826   -1.1328    0.0000 C   0  0  0  0  0  0  0  0  0
  1  2  1  0  0  0  0
  2  3  1  0  0  0  0
  2  4  1  0  0  0  0
  2  5  1  0  0  0  0
  5  6  4  0  0  0  0
  5 10  4  0  0  0  0
  6  7  4  0  0  0  0
  7  8  4  0  0  0  0
  7 11  1  0  0  0  0
  8  9  4  0  0  0  0
  9 10  4  0  0  0  0
 11 12  1  0  0  0  0
 12 13  1  0  0  0  0
 12 16  1  0  0  0  0
 13 14  1  0  0  0  0
 14 15  1  0  0  0  0
M  END
>  <Name_Molregno>
d-Fenfluramine

>  <5-HT1A>
6.11

>  <5-HT1B>
5.67

>  <5-HT1D>
5.79

>  <5-HT1E>
5

>  <5-HT2A>
5.92

>  <5-HT2C>
6.27

>  <5-HT3>
5

>  <5-HT5>
5

>  <5-HT6>
5.01

>  <5-HT7>
5.17

>  <Alpha-1A>
5.52

>  <Alpha-1B>
5.62

>  <Alpha-2A>
6.26

>  <Alpha-2B>
6.65

>  <Alpha-2C>
6.68

>  <Beta-1>
5.67

>  <Beta-2>
5.07

>  <DOPAMINE D1>
5

>  <DOPAMINE D2>
5

>  <DOPAMINE D4>
5

>  <DOPAMINE D5>
5

>  <Dopamine transporter>
5

>  <HISTAMINE H1>
5

>  <HISTAMINE H2>
5

>  <Muscarinic acetylcholine receptor M1>
5.61

>  <Muscarinic acetylcholine receptor M2>
5.39

>  <Muscarinic acetylcholine receptor M3>
5.22

>  <Muscarinic acetylcholine receptor M4>
5.1

>  <Muscarinic acetylcholine receptor M5>
5

>  <Norepinephrine transporter>
5

>  <Serotonin transporter>
6.18

$$$$
DL-homocysteic-acid
  Marvin  02231216192D 0   1.00000     0.00000     0

 11 10  0  0  1  0  0  0  0  0999 V2000
   -2.6928   -0.0066    0.0000 S   0  0  0  0  0  0  0  0  0
   -3.4073   -0.4191    0.0000 O   0  0  0  0  0  0  0  0  0
   -2.2803   -0.7210    0.0000 O   0  0  0  0  0  0  0  0  0
   -3.1053    0.7079    0.0000 O   0  0  0  0  0  0  0  0  0
   -1.9783    0.4059    0.0000 C   0  0  0  0  0  0  0  0  0
   -1.2639   -0.0066    0.0000 C   0  0  0  0  0  0  0  0  0
   -0.5494    0.4059    0.0000 C   0  0  0  0  0  0  0  0  0
   -0.5494    1.2309    0.0000 N   0  0  0  0  0  0  0  0  0
    0.1651   -0.0066    0.0000 C   0  0  0  0  0  0  0  0  0
    0.8795    0.4059    0.0000 O   0  0  0  0  0  0  0  0  0
    0.1651   -0.8316    0.0000 O   0  0  0  0  0  0  0  0  0
  1  2  2  0  0  0  0
  1  3  2  0  0  0  0
  1  4  1  0  0  0  0
  1  5  1  0  0  0  0
  5  6  1  0  0  0  0
  6  7  1  0  0  0  0
  7  8  1  0  0  0  0
  7  9  1  0  0  0  0
  9 10  1  0  0  0  0
  9 11  2  0  0  0  0
M  END
>  <Name_Molregno>
DL-homocysteic-acid

>  <5-HT1A>
5

>  <5-HT1B>
5

>  <5-HT1D>
5

>  <5-HT3>
5

>  <5-HT5>
5

>  <5-HT6>
5

>  <5-HT7>
5

>  <Alpha-1A>
5

>  <Alpha-1B>
5

>  <Alpha-2A>
5

>  <Alpha-2B>
5

>  <Alpha-2C>
5

>  <DOPAMINE D1>
5

>  <DOPAMINE D2>
5

>  <DOPAMINE D3>
5

>  <DOPAMINE D5>
5

>  <Dopamine transporter>
5

>  <Muscarinic acetylcholine receptor M1>
5

>  <Muscarinic acetylcholine receptor M2>
5

>  <Muscarinic acetylcholine receptor M3>
5

>  <Muscarinic acetylcholine receptor M4>
5

>  <Muscarinic acetylcholine receptor M5>
5

>  <Norepinephrine transporter>
5

>  <Serotonin transporter>
5

$$$$
DL-homocysteine
  Marvin  02231216192D 0   1.00000     0.00000     0

  8  7  0  0  1  0  0  0  0  0999 V2000
   -0.0519    0.0021    0.0000 S   0  0  0  0  0  0  0  0  0
    0.6626    0.4146    0.0000 C   0  0  0  0  0  0  0  0  0
    1.3770    0.0021    0.0000 C   0  0  0  0  0  0  0  0  0
    2.0915    0.4146    0.0000 C   0  0  0  0  0  0  0  0  0
    2.0915    1.2396    0.0000 N   0  0  0  0  0  0  0  0  0
    2.8060    0.0021    0.0000 C   0  0  0  0  0  0  0  0  0
    3.5205    0.4146    0.0000 O   0  0  0  0  0  0  0  0  0
    2.8060   -0.8229    0.0000 O   0  0  0  0  0  0  0  0  0
  1  2  1  0  0  0  0
  2  3  1  0  0  0  0
  3  4  1  0  0  0  0
  4  5  1  0  0  0  0
  4  6  1  0  0  0  0
  6  7  1  0  0  0  0
  6  8  2  0  0  0  0
M  END
>  <Name_Molregno>
DL-homocysteine

>  <5-HT1A>
5

>  <5-HT1B>
5

>  <5-HT1D>
5

>  <5-HT3>
5

>  <5-HT5>
5

>  <5-HT6>
5

>  <5-HT7>
5

>  <Alpha-1A>
5

>  <Alpha-1B>
5

>  <Alpha-2A>
5

>  <Alpha-2B>
5

>  <Alpha-2C>
5

>  <DOPAMINE D1>
5

>  <DOPAMINE D2>
5

>  <DOPAMINE D3>
5

>  <DOPAMINE D5>
5

>  <Dopamine transporter>
5

>  <HISTAMINE H1>
5

>  <HISTAMINE H2>
5

>  <HISTAMINE H4>
5

>  <Muscarinic acetylcholine receptor M1>
5

>  <Muscarinic acetylcholine receptor M2>
5

>  <Muscarinic acetylcholine receptor M3>
5

>  <Muscarinic acetylcholine receptor M4>
5

>  <Muscarinic acetylcholine receptor M5>
5

>  <Norepinephrine transporter>
5

>  <Serotonin transporter>
5

$$$$
D-methionine
  Marvin  02231216192D 0   1.00000     0.00000     0

  9  8  0  0  1  0  0  0  0  0999 V2000
   -0.3763    1.2394    0.0000 S   0  0  0  0  0  0  0  0  0
    0.3381    0.8269    0.0000 C   0  0  0  0  0  0  0  0  0
    1.0526    1.2394    0.0000 C   0  0  0  0  0  0  0  0  0
    1.7671    0.8269    0.0000 C   0  0  0  0  0  0  0  0  0
    1.7671    0.0019    0.0000 N   0  0  0  0  0  0  0  0  0
    2.4816    1.2394    0.0000 C   0  0  0  0  0  0  0  0  0
    3.1960    0.8269    0.0000 O   0  0  0  0  0  0  0  0  0
    2.4816    2.0644    0.0000 O   0  0  0  0  0  0  0  0  0
   -1.0908    0.8269    0.0000 C   0  0  0  0  0  0  0  0  0
  1  2  1  0  0  0  0
  1  9  1  0  0  0  0
  2  3  1  0  0  0  0
  3  4  1  0  0  0  0
  4  5  1  0  0  0  0
  4  6  1  0  0  0  0
  6  7  1  0  0  0  0
  6  8  2  0  0  0  0
M  END
>  <Name_Molregno>
D-methionine

>  <5-HT1A>
5

>  <5-HT1B>
5

>  <5-HT1D>
5

>  <5-HT3>
5

>  <5-HT5>
5

>  <5-HT6>
5

>  <5-HT7>
5

>  <Alpha-1A>
5

>  <Alpha-1B>
5

>  <Alpha-2A>
5

>  <Alpha-2B>
5

>  <Alpha-2C>
5

>  <DOPAMINE D1>
5

>  <DOPAMINE D2>
5

>  <DOPAMINE D3>
5

>  <DOPAMINE D5>
5

>  <Dopamine transporter>
5

>  <HISTAMINE H1>
5

>  <HISTAMINE H2>
5

>  <HISTAMINE H4>
5

>  <Muscarinic acetylcholine receptor M1>
5

>  <Muscarinic acetylcholine receptor M2>
5

>  <Muscarinic acetylcholine receptor M3>
5

>  <Muscarinic acetylcholine receptor M4>
5

>  <Muscarinic acetylcholine receptor M5>
5

>  <Norepinephrine transporter>
5

>  <Serotonin transporter>
5

$$$$
DOPAMINE
  Marvin  02231216192D 0   1.00000     0.00000     0

 11 11  0  0  0  0  0  0  0  0999 V2000
    3.1358    1.8244    0.0000 O   0  0  0  0  0  0  0  0  0
    2.4213    1.4119    0.0000 C   0  0  0  0  0  0  0  0  0
    2.4213    0.5869    0.0000 C   0  0  0  0  0  0  0  0  0
    1.7068    0.1744    0.0000 C   0  0  0  0  0  0  0  0  0
    0.9924    0.5869    0.0000 C   0  0  0  0  0  0  0  0  0
    0.9924    1.4119    0.0000 C   0  0  0  0  0  0  0  0  0
    1.7068    1.8244    0.0000 C   0  0  0  0  0  0  0  0  0
    1.7068    2.6494    0.0000 O   0  0  0  0  0  0  0  0  0
    1.7068   -0.6506    0.0000 C   0  0  0  0  0  0  0  0  0
    0.9924   -1.0631    0.0000 C   0  0  0  0  0  0  0  0  0
    0.9924   -1.8881    0.0000 N   0  0  0  0  0  0  0  0  0
  1  2  1  0  0  0  0
  2  3  4  0  0  0  0
  2  7  4  0  0  0  0
  3  4  4  0  0  0  0
  4  5  4  0  0  0  0
  4  9  1  0  0  0  0
  5  6  4  0  0  0  0
  6  7  4  0  0  0  0
  7  8  1  0  0  0  0
  9 10  1  0  0  0  0
 10 11  1  0  0  0  0
M  END
>  <Name_Molregno>
DOPAMINE

>  <5-HT1A>
5.08

>  <5-HT2A>
5

>  <5-HT3>
5

>  <5-HT7>
5

>  <DOPAMINE D1>
5.72

>  <DOPAMINE D2>
6.7

>  <DOPAMINE D3>
7.41

>  <DOPAMINE D4>
7.64

>  <DOPAMINE D5>
6.64

>  <Dopamine transporter>
5.79

>  <Norepinephrine transporter>
6.49

$$$$
Dothiepin
  Marvin  02231216192D 0   1.00000     0.00000     0

 21 23  0  0  0  0  0  0  0  0999 V2000
    0.5748    0.1771    0.0000 S   0  0  0  0  0  0  0  0  0
    1.3998    0.1771    0.0000 C   0  0  0  0  0  0  0  0  0
    1.9142   -0.4679    0.0000 C   0  0  0  0  0  0  0  0  0
    1.7306   -1.2722    0.0000 C   0  0  0  0  0  0  0  0  0
    2.3354   -1.8333    0.0000 C   0  0  0  0  0  0  0  0  0
    3.1237   -1.5902    0.0000 C   0  0  0  0  0  0  0  0  0
    3.3073   -0.7858    0.0000 C   0  0  0  0  0  0  0  0  0
    2.7026   -0.2247    0.0000 C   0  0  0  0  0  0  0  0  0
    0.9873   -1.6301    0.0000 C   0  0  0  0  0  0  0  0  0
    0.2440   -1.2722    0.0000 C   0  0  0  0  0  0  0  0  0
    0.0604   -0.4679    0.0000 C   0  0  0  0  0  0  0  0  0
   -0.7279   -0.2247    0.0000 C   0  0  0  0  0  0  0  0  0
   -1.3327   -0.7858    0.0000 C   0  0  0  0  0  0  0  0  0
   -1.1491   -1.5902    0.0000 C   0  0  0  0  0  0  0  0  0
   -0.3607   -1.8333    0.0000 C   0  0  0  0  0  0  0  0  0
    0.9873   -2.4551    0.0000 C   0  0  0  0  0  0  0  0  0
    0.2729   -2.8676    0.0000 C   0  0  0  0  0  0  0  0  0
    0.2729   -3.6926    0.0000 C   0  0  0  0  0  0  0  0  0
   -0.4416   -4.1051    0.0000 N   0  0  0  0  0  0  0  0  0
   -0.4416   -4.9301    0.0000 C   0  0  0  0  0  0  0  0  0
   -1.1561   -3.6926    0.0000 C   0  0  0  0  0  0  0  0  0
  1  2  1  0  0  0  0
  1 11  1  0  0  0  0
  2  3  1  0  0  0  0
  3  4  4  0  0  0  0
  3  8  4  0  0  0  0
  4  5  4  0  0  0  0
  4  9  1  0  0  0  0
  5  6  4  0  0  0  0
  6  7  4  0  0  0  0
  7  8  4  0  0  0  0
  9 10  1  0  0  0  0
  9 16  2  0  0  0  0
 10 11  4  0  0  0  0
 10 15  4  0  0  0  0
 11 12  4  0  0  0  0
 12 13  4  0  0  0  0
 13 14  4  0  0  0  0
 14 15  4  0  0  0  0
 16 17  1  0  0  0  0
 17 18  1  0  0  0  0
 18 19  1  0  0  0  0
 19 20  1  0  0  0  0
 19 21  1  0  0  0  0
M  END
>  <Name_Molregno>
Dothiepin

>  <Dopamine transporter>
5.27

>  <Muscarinic acetylcholine receptor M1>
7.74

>  <Muscarinic acetylcholine receptor M2>
6.96

>  <Muscarinic acetylcholine receptor M3>
7.42

>  <Muscarinic acetylcholine receptor M4>
7.21

>  <Muscarinic acetylcholine receptor M5>
7.04

>  <Norepinephrine transporter>
7.34

>  <Serotonin transporter>
8.07

$$$$
DOXEPIN
  Marvin  02231216192D 0   1.00000     0.00000     0

 21 23  0  0  0  0  0  0  0  0999 V2000
    0.5748    0.1771    0.0000 O   0  0  0  0  0  0  0  0  0
    1.3998    0.1771    0.0000 C   0  0  0  0  0  0  0  0  0
    1.9142   -0.4679    0.0000 C   0  0  0  0  0  0  0  0  0
    1.7306   -1.2722    0.0000 C   0  0  0  0  0  0  0  0  0
    2.3354   -1.8333    0.0000 C   0  0  0  0  0  0  0  0  0
    3.1237   -1.5902    0.0000 C   0  0  0  0  0  0  0  0  0
    3.3073   -0.7858    0.0000 C   0  0  0  0  0  0  0  0  0
    2.7026   -0.2247    0.0000 C   0  0  0  0  0  0  0  0  0
    0.9873   -1.6301    0.0000 C   0  0  0  0  0  0  0  0  0
    0.2440   -1.2722    0.0000 C   0  0  0  0  0  0  0  0  0
    0.0604   -0.4679    0.0000 C   0  0  0  0  0  0  0  0  0
   -0.7279   -0.2247    0.0000 C   0  0  0  0  0  0  0  0  0
   -1.3327   -0.7858    0.0000 C   0  0  0  0  0  0  0  0  0
   -1.1491   -1.5902    0.0000 C   0  0  0  0  0  0  0  0  0
   -0.3607   -1.8333    0.0000 C   0  0  0  0  0  0  0  0  0
    0.9873   -2.4551    0.0000 C   0  0  0  0  0  0  0  0  0
    0.2729   -2.8676    0.0000 C   0  0  0  0  0  0  0  0  0
    0.2729   -3.6926    0.0000 C   0  0  0  0  0  0  0  0  0
   -0.4416   -4.1051    0.0000 N   0  0  0  0  0  0  0  0  0
   -0.4416   -4.9301    0.0000 C   0  0  0  0  0  0  0  0  0
   -1.1561   -3.6926    0.0000 C   0  0  0  0  0  0  0  0  0
  1  2  1  0  0  0  0
  1 11  1  0  0  0  0
  2  3  1  0  0  0  0
  3  4  4  0  0  0  0
  3  8  4  0  0  0  0
  4  5  4  0  0  0  0
  4  9  1  0  0  0  0
  5  6  4  0  0  0  0
  6  7  4  0  0  0  0
  7  8  4  0  0  0  0
  9 10  1  0  0  0  0
  9 16  2  0  0  0  0
 10 11  4  0  0  0  0
 10 15  4  0  0  0  0
 11 12  4  0  0  0  0
 12 13  4  0  0  0  0
 13 14  4  0  0  0  0
 14 15  4  0  0  0  0
 16 17  1  0  0  0  0
 17 18  1  0  0  0  0
 18 19  1  0  0  0  0
 19 20  1  0  0  0  0
 19 21  1  0  0  0  0
M  END
>  <Name_Molregno>
DOXEPIN

>  <5-HT1A>
6.56

>  <DOPAMINE D2>
6.44

>  <Dopamine transporter>
5

>  <HISTAMINE H1>
9.68

>  <HISTAMINE H4>
6.98

>  <Muscarinic acetylcholine receptor M1>
7.42

>  <Muscarinic acetylcholine receptor M2>
6.8

>  <Muscarinic acetylcholine receptor M3>
7.28

>  <Muscarinic acetylcholine receptor M4>
7.09

>  <Muscarinic acetylcholine receptor M5>
7.12

>  <Norepinephrine transporter>
7.53

>  <Serotonin transporter>
7.17

$$$$
Ephedrine
  Marvin  02231216192D 0   1.00000     0.00000     0

 12 12  0  0  1  0  0  0  0  0999 V2000
    1.9192   -0.0549    0.0000 O   0  0  0  0  0  0  0  0  0
    1.2047   -0.4674    0.0000 C   0  0  0  0  0  0  0  0  0
    0.4903   -0.0549    0.0000 C   0  0  0  0  0  0  0  0  0
    0.4903    0.7701    0.0000 N   0  0  0  0  0  0  0  0  0
   -0.2242    1.1826    0.0000 C   0  0  0  0  0  0  0  0  0
   -0.2242   -0.4674    0.0000 C   0  0  0  0  0  0  0  0  0
    1.2047   -1.2924    0.0000 C   0  0  0  0  0  0  0  0  0
    1.9192   -1.7049    0.0000 C   0  0  0  0  0  0  0  0  0
    1.9192   -2.5299    0.0000 C   0  0  0  0  0  0  0  0  0
    1.2047   -2.9424    0.0000 C   0  0  0  0  0  0  0  0  0
    0.4903   -2.5299    0.0000 C   0  0  0  0  0  0  0  0  0
    0.4903   -1.7049    0.0000 C   0  0  0  0  0  0  0  0  0
  1  2  1  0  0  0  0
  2  3  1  0  0  0  0
  2  7  1  0  0  0  0
  3  4  1  0  0  0  0
  3  6  1  0  0  0  0
  4  5  1  0  0  0  0
  7  8  4  0  0  0  0
  7 12  4  0  0  0  0
  8  9  4  0  0  0  0
  9 10  4  0  0  0  0
 10 11  4  0  0  0  0
 11 12  4  0  0  0  0
M  END
>  <Name_Molregno>
Ephedrine

>  <5-HT1A>
5

>  <5-HT1B>
5

>  <5-HT1D>
5

>  <5-HT1E>
5

>  <5-HT3>
5

>  <5-HT5>
5

>  <5-HT6>
5

>  <5-HT7>
5.33

>  <Alpha-1A>
5

>  <Alpha-1B>
5

>  <Alpha-2A>
5.17

>  <Alpha-2B>
5.48

>  <Alpha-2C>
5.51

>  <Beta-1>
5

>  <Beta-2>
5

>  <DOPAMINE D1>
5

>  <DOPAMINE D2>
5

>  <DOPAMINE D4>
5

>  <DOPAMINE D5>
5

>  <Dopamine transporter>
5.38

>  <HISTAMINE H1>
5

>  <HISTAMINE H2>
5

>  <HISTAMINE H4>
5

>  <Muscarinic acetylcholine receptor M1>
5

>  <Muscarinic acetylcholine receptor M2>
5

>  <Muscarinic acetylcholine receptor M3>
5

>  <Muscarinic acetylcholine receptor M4>
5

>  <Muscarinic acetylcholine receptor M5>
5

>  <Norepinephrine transporter>
5.79

>  <Serotonin transporter>
5

$$$$
EPINEPHRINE
  Marvin  02231216192D 0   1.00000     0.00000     0

 13 13  0  0  1  0  0  0  0  0999 V2000
    3.1920    1.0753    0.0000 O   0  0  0  0  0  0  0  0  0
    2.4776    0.6628    0.0000 C   0  0  0  0  0  0  0  0  0
    2.4776   -0.1622    0.0000 C   0  0  0  0  0  0  0  0  0
    1.7631   -0.5747    0.0000 C   0  0  0  0  0  0  0  0  0
    1.0486   -0.1622    0.0000 C   0  0  0  0  0  0  0  0  0
    1.0486    0.6628    0.0000 C   0  0  0  0  0  0  0  0  0
    1.7631    1.0753    0.0000 C   0  0  0  0  0  0  0  0  0
    1.7631    1.9003    0.0000 O   0  0  0  0  0  0  0  0  0
    1.7631   -1.3997    0.0000 C   0  0  0  0  0  0  0  0  0
    1.0486   -1.8122    0.0000 O   0  0  0  0  0  0  0  0  0
    2.4776   -1.8122    0.0000 C   0  0  0  0  0  0  0  0  0
    2.4776   -2.6372    0.0000 N   0  0  0  0  0  0  0  0  0
    3.1920   -3.0497    0.0000 C   0  0  0  0  0  0  0  0  0
  1  2  1  0  0  0  0
  2  3  4  0  0  0  0
  2  7  4  0  0  0  0
  3  4  4  0  0  0  0
  4  5  4  0  0  0  0
  4  9  1  0  0  0  0
  5  6  4  0  0  0  0
  6  7  4  0  0  0  0
  7  8  1  0  0  0  0
  9 10  1  0  0  0  0
  9 11  1  0  0  0  0
 11 12  1  0  0  0  0
 12 13  1  0  0  0  0
M  END
>  <Name_Molregno>
EPINEPHRINE

>  <5-HT2A>
5

>  <5-HT7>
5

>  <Alpha-2A>
5.83

>  <Alpha-2B>
5.9

>  <Alpha-2C>
5.77

>  <Beta-1>
5.4

>  <Beta-2>
5.76

>  <Norepinephrine transporter>
5.43

$$$$
ERGOTAMINE
  Marvin  02231216192D 0   1.00000     0.00000     0

 43 50  0  0  1  0  0  0  0  0999 V2000
   -2.1239   -1.0172    0.0000 O   0  0  0  0  0  0  0  0  0
   -1.3035   -1.1045    0.0000 C   0  0  0  0  0  0  0  0  0
   -1.3025   -0.2795    0.0000 N   0  0  0  0  0  0  0  0  0
   -0.5876    0.1322    0.0000 C   0  0  0  0  0  0  0  0  0
    0.1264   -0.2812    0.0000 O   0  0  0  0  0  0  0  0  0
   -0.5866    0.9572    0.0000 C   0  0  0  0  0  0  0  0  0
    0.1284    1.3688    0.0000 C   0  0  0  0  0  0  0  0  0
    0.1294    2.1938    0.0000 C   0  0  0  0  0  0  0  0  0
   -0.5846    2.6072    0.0000 C   0  0  0  0  0  0  0  0  0
   -1.2996    2.1955    0.0000 N   0  0  0  0  0  0  0  0  0
   -1.3006    1.3705    0.0000 C   0  0  0  0  0  0  0  0  0
   -2.0136    2.6089    0.0000 C   0  0  0  0  0  0  0  0  0
   -0.5831    3.4313    0.0000 C   0  0  0  0  0  0  0  0  0
    0.1294    3.8438    0.0000 C   0  0  0  0  0  0  0  0  0
    0.8419    3.4313    0.0000 C   0  0  0  0  0  0  0  0  0
    0.8419    2.6063    0.0000 C   0  0  0  0  0  0  0  0  0
    1.5597    2.1938    0.0000 C   0  0  0  0  0  0  0  0  0
    2.2722    2.6063    0.0000 C   0  0  0  0  0  0  0  0  0
    2.2722    3.4313    0.0000 C   0  0  0  0  0  0  0  0  0
    1.5597    3.8438    0.0000 C   0  0  0  0  0  0  0  0  0
    1.2544    4.7010    0.0000 N   0  0  0  0  0  0  0  0  0
    0.4294    4.7010    0.0000 C   0  0  0  0  0  0  0  0  0
   -0.4830   -1.0192    0.0000 C   0  0  0  0  0  0  0  0  0
   -1.1330   -1.9116    0.0000 C   0  0  0  0  0  0  0  0  0
   -0.3797   -2.2481    0.0000 O   0  0  0  0  0  0  0  0  0
   -1.8479   -2.3233    0.0000 N   0  0  0  0  0  0  0  0  0
   -2.0204   -3.1301    0.0000 C   0  0  0  0  0  0  0  0  0
   -1.4080   -3.6828    0.0000 C   0  0  0  0  0  0  0  0  0
   -1.5805   -4.4896    0.0000 C   0  0  0  0  0  0  0  0  0
   -0.9681   -5.0424    0.0000 C   0  0  0  0  0  0  0  0  0
   -1.1406   -5.8491    0.0000 C   0  0  0  0  0  0  0  0  0
   -1.9255   -6.1031    0.0000 C   0  0  0  0  0  0  0  0  0
   -2.5379   -5.5504    0.0000 C   0  0  0  0  0  0  0  0  0
   -2.3654   -4.7436    0.0000 C   0  0  0  0  0  0  0  0  0
   -2.8054   -3.3841    0.0000 C   0  0  0  0  0  0  0  0  0
   -2.9779   -4.1908    0.0000 O   0  0  0  0  0  0  0  0  0
   -3.4178   -2.8313    0.0000 N   0  0  0  0  0  0  0  0  0
   -3.2453   -2.0245    0.0000 C   0  0  0  0  0  0  0  0  0
   -3.9593   -1.6112    0.0000 C   0  0  0  0  0  0  0  0  0
   -4.5730   -2.1625    0.0000 C   0  0  0  0  0  0  0  0  0
   -4.2384   -2.9165    0.0000 C   0  0  0  0  0  0  0  0  0
   -2.4604   -1.7705    0.0000 C   0  0  0  0  0  0  0  0  0
   -3.0117   -1.1568    0.0000 O   0  0  0  0  0  0  0  0  0
  1  2  1  0  0  0  0
  1 42  1  0  0  0  0
  2  3  1  0  0  0  0
  2 23  1  0  0  0  0
  2 24  1  0  0  0  0
  3  4  1  0  0  0  0
  4  5  2  0  0  0  0
  4  6  1  0  0  0  0
  6  7  1  0  0  0  0
  6 11  1  0  0  0  0
  7  8  2  0  0  0  0
  8  9  1  0  0  0  0
  8 16  1  0  0  0  0
  9 10  1  0  0  0  0
  9 13  1  0  0  0  0
 10 11  1  0  0  0  0
 10 12  1  0  0  0  0
 13 14  1  0  0  0  0
 14 15  4  0  0  0  0
 14 22  4  0  0  0  0
 15 16  4  0  0  0  0
 15 20  4  0  0  0  0
 16 17  4  0  0  0  0
 17 18  4  0  0  0  0
 18 19  4  0  0  0  0
 19 20  4  0  0  0  0
 20 21  4  0  0  0  0
 21 22  4  0  0  0  0
 24 25  2  0  0  0  0
 24 26  1  0  0  0  0
 26 27  1  0  0  0  0
 26 42  1  0  0  0  0
 27 28  1  0  0  0  0
 27 35  1  0  0  0  0
 28 29  1  0  0  0  0
 29 30  4  0  0  0  0
 29 34  4  0  0  0  0
 30 31  4  0  0  0  0
 31 32  4  0  0  0  0
 32 33  4  0  0  0  0
 33 34  4  0  0  0  0
 35 36  2  0  0  0  0
 35 37  1  0  0  0  0
 37 38  1  0  0  0  0
 37 41  1  0  0  0  0
 38 39  1  0  0  0  0
 38 42  1  0  0  0  0
 39 40  1  0  0  0  0
 40 41  1  0  0  0  0
 42 43  1  0  0  0  0
M  STY  1   1 DAT
M  SAL   1  1  21
M  SDT   1 MRV_IMPLICIT_H                                        
M  SDD   1     0.0000    0.0000    DR    ALL  0       0  
M  SED   1 IMPL_H1
M  END
>  <Name_Molregno>
ERGOTAMINE

>  <5-HT1A>
9.77

>  <5-HT1B>
8.33

>  <5-HT1D>
9

>  <5-HT1E>
6.58

>  <5-HT2A>
9.1

>  <5-HT2C>
8.37

>  <5-HT3>
5

>  <5-HT6>
7.92

>  <5-HT7>
5.89

>  <Alpha-1A>
5

>  <Alpha-1B>
5

>  <Alpha-2A>
6.97

>  <Alpha-2B>
7.05

>  <Alpha-2C>
5

>  <Beta-1>
5

>  <Beta-2>
5

>  <DOPAMINE D1>
5

>  <DOPAMINE D2>
5

>  <DOPAMINE D4>
5

>  <DOPAMINE D5>
6.77

>  <Dopamine transporter>
5

>  <HISTAMINE H1>
5

>  <HISTAMINE H2>
5

>  <Muscarinic acetylcholine receptor M1>
6.06

>  <Muscarinic acetylcholine receptor M2>
6.04

>  <Muscarinic acetylcholine receptor M3>
5

>  <Muscarinic acetylcholine receptor M4>
5

>  <Muscarinic acetylcholine receptor M5>
5

>  <Norepinephrine transporter>
5

>  <Serotonin transporter>
5

$$$$
Etoperidone
  Marvin  02231216192D 0   1.00000     0.00000     0

 26 28  0  0  0  0  0  0  0  0999 V2000
    8.8513    2.0412    0.0000 Cl  0  0  0  0  0  0  0  0  0
    8.1368    2.4537    0.0000 C   0  0  0  0  0  0  0  0  0
    7.4223    2.0412    0.0000 C   0  0  0  0  0  0  0  0  0
    6.7079    2.4537    0.0000 C   0  0  0  0  0  0  0  0  0
    5.9934    2.0412    0.0000 N   0  0  0  0  0  0  0  0  0
    5.9934    1.2162    0.0000 C   0  0  0  0  0  0  0  0  0
    5.2789    0.8037    0.0000 C   0  0  0  0  0  0  0  0  0
    4.5644    1.2162    0.0000 N   0  0  0  0  0  0  0  0  0
    4.5644    2.0412    0.0000 C   0  0  0  0  0  0  0  0  0
    5.2789    2.4537    0.0000 C   0  0  0  0  0  0  0  0  0
    3.8500    0.8037    0.0000 C   0  0  0  0  0  0  0  0  0
    3.8500   -0.0213    0.0000 C   0  0  0  0  0  0  0  0  0
    3.1355   -0.4338    0.0000 C   0  0  0  0  0  0  0  0  0
    3.1355   -1.2588    0.0000 N   0  0  0  0  0  0  0  0  0
    3.8029   -1.7438    0.0000 N   0  0  0  0  0  0  0  0  0
    3.5480   -2.5284    0.0000 C   0  0  0  0  0  0  0  0  0
    2.7230   -2.5284    0.0000 N   0  0  0  0  0  0  0  0  0
    2.2381   -3.1958    0.0000 C   0  0  0  0  0  0  0  0  0
    2.5736   -3.9495    0.0000 C   0  0  0  0  0  0  0  0  0
    2.4681   -1.7438    0.0000 C   0  0  0  0  0  0  0  0  0
    1.6834   -1.4888    0.0000 O   0  0  0  0  0  0  0  0  0
    4.0329   -3.1958    0.0000 C   0  0  0  0  0  0  0  0  0
    3.6974   -3.9495    0.0000 C   0  0  0  0  0  0  0  0  0
    6.7079    3.2787    0.0000 C   0  0  0  0  0  0  0  0  0
    7.4223    3.6912    0.0000 C   0  0  0  0  0  0  0  0  0
    8.1368    3.2787    0.0000 C   0  0  0  0  0  0  0  0  0
  1  2  1  0  0  0  0
  2  3  4  0  0  0  0
  2 26  4  0  0  0  0
  3  4  4  0  0  0  0
  4  5  1  0  0  0  0
  4 24  4  0  0  0  0
  5  6  1  0  0  0  0
  5 10  1  0  0  0  0
  6  7  1  0  0  0  0
  7  8  1  0  0  0  0
  8  9  1  0  0  0  0
  8 11  1  0  0  0  0
  9 10  1  0  0  0  0
 11 12  1  0  0  0  0
 12 13  1  0  0  0  0
 13 14  1  0  0  0  0
 14 15  1  0  0  0  0
 14 20  1  0  0  0  0
 15 16  2  0  0  0  0
 16 17  1  0  0  0  0
 16 22  1  0  0  0  0
 17 18  1  0  0  0  0
 17 20  1  0  0  0  0
 18 19  1  0  0  0  0
 20 21  2  0  0  0  0
 22 23  1  0  0  0  0
 24 25  4  0  0  0  0
 25 26  4  0  0  0  0
M  END
>  <Name_Molregno>
Etoperidone

>  <5-HT1A>
7.07

>  <DOPAMINE D2>
5.64

>  <Dopamine transporter>
5

>  <HISTAMINE H1>
5.51

>  <Muscarinic acetylcholine receptor M1>
5

>  <Muscarinic acetylcholine receptor M2>
5

>  <Muscarinic acetylcholine receptor M3>
5

>  <Muscarinic acetylcholine receptor M4>
5

>  <Muscarinic acetylcholine receptor M5>
5

>  <Norepinephrine transporter>
5

>  <Serotonin transporter>
6.05

$$$$
ETORICOXIB
  Marvin  02231216192D 0   1.00000     0.00000     0

 24 26  0  0  0  0  0  0  0  0999 V2000
    1.3103    1.0543    0.0000 Cl  0  0  0  0  0  0  0  0  0
    1.3103    0.2293    0.0000 C   0  0  0  0  0  0  0  0  0
    2.0248   -0.1832    0.0000 C   0  0  0  0  0  0  0  0  0
    2.0248   -1.0082    0.0000 C   0  0  0  0  0  0  0  0  0
    1.3103   -1.4207    0.0000 C   0  0  0  0  0  0  0  0  0
    0.5958   -1.0082    0.0000 N   0  0  0  0  0  0  0  0  0
    0.5958   -0.1832    0.0000 C   0  0  0  0  0  0  0  0  0
    1.3103   -2.2457    0.0000 C   0  0  0  0  0  0  0  0  0
    2.0248   -2.6582    0.0000 C   0  0  0  0  0  0  0  0  0
    2.0248   -3.4832    0.0000 C   0  0  0  0  0  0  0  0  0
    1.3103   -3.8957    0.0000 C   0  0  0  0  0  0  0  0  0
    0.5958   -3.4832    0.0000 N   0  0  0  0  0  0  0  0  0
    0.5958   -2.6582    0.0000 C   0  0  0  0  0  0  0  0  0
    1.3103   -4.7207    0.0000 C   0  0  0  0  0  0  0  0  0
    2.7392   -1.4207    0.0000 C   0  0  0  0  0  0  0  0  0
    3.4537   -1.0082    0.0000 C   0  0  0  0  0  0  0  0  0
    4.1682   -1.4207    0.0000 C   0  0  0  0  0  0  0  0  0
    4.1682   -2.2457    0.0000 C   0  0  0  0  0  0  0  0  0
    4.8826   -2.6582    0.0000 S   0  0  0  0  0  0  0  0  0
    5.5971   -3.0707    0.0000 O   0  0  0  0  0  0  0  0  0
    4.4701   -3.3727    0.0000 O   0  0  0  0  0  0  0  0  0
    5.2951   -1.9437    0.0000 C   0  0  0  0  0  0  0  0  0
    3.4537   -2.6582    0.0000 C   0  0  0  0  0  0  0  0  0
    2.7392   -2.2457    0.0000 C   0  0  0  0  0  0  0  0  0
  1  2  1  0  0  0  0
  2  3  4  0  0  0  0
  2  7  4  0  0  0  0
  3  4  4  0  0  0  0
  4  5  4  0  0  0  0
  4 15  1  0  0  0  0
  5  6  4  0  0  0  0
  5  8  1  0  0  0  0
  6  7  4  0  0  0  0
  8  9  4  0  0  0  0
  8 13  4  0  0  0  0
  9 10  4  0  0  0  0
 10 11  4  0  0  0  0
 11 12  4  0  0  0  0
 11 14  1  0  0  0  0
 12 13  4  0  0  0  0
 15 16  4  0  0  0  0
 15 24  4  0  0  0  0
 16 17  4  0  0  0  0
 17 18  4  0  0  0  0
 18 19  1  0  0  0  0
 18 23  4  0  0  0  0
 19 20  2  0  0  0  0
 19 21  2  0  0  0  0
 19 22  1  0  0  0  0
 23 24  4  0  0  0  0
M  END
>  <Name_Molregno>
ETORICOXIB

>  <5-HT1A>
5

>  <5-HT1B>
5

>  <5-HT1D>
5

>  <5-HT1E>
5

>  <5-HT2A>
5

>  <5-HT3>
5

>  <5-HT6>
5

>  <5-HT7>
5

>  <Alpha-1A>
5

>  <Alpha-1B>
5

>  <Alpha-2A>
5

>  <Alpha-2B>
5

>  <Alpha-2C>
5

>  <DOPAMINE D1>
5

>  <DOPAMINE D2>
5

>  <DOPAMINE D5>
5

>  <Dopamine transporter>
5

>  <HISTAMINE H2>
5

>  <HISTAMINE H4>
5

>  <Muscarinic acetylcholine receptor M1>
5

>  <Norepinephrine transporter>
5

>  <Serotonin transporter>
5

$$$$
Femoxetine
  Marvin  02231216192D 0   1.00000     0.00000     0

 23 25  0  0  1  0  0  0  0  0999 V2000
    0.2450    1.0399    0.0000 O   0  0  0  0  0  0  0  0  0
    0.9594    0.6274    0.0000 C   0  0  0  0  0  0  0  0  0
    0.9594   -0.1976    0.0000 C   0  0  0  0  0  0  0  0  0
    1.6739   -0.6101    0.0000 C   0  0  0  0  0  0  0  0  0
    1.6739   -1.4351    0.0000 N   0  0  0  0  0  0  0  0  0
    0.9594   -1.8476    0.0000 C   0  0  0  0  0  0  0  0  0
    0.2450   -1.4351    0.0000 C   0  0  0  0  0  0  0  0  0
    0.2450   -0.6101    0.0000 C   0  0  0  0  0  0  0  0  0
   -0.4695   -0.1976    0.0000 C   0  0  0  0  0  0  0  0  0
   -1.1840   -0.6101    0.0000 C   0  0  0  0  0  0  0  0  0
   -1.8985   -0.1976    0.0000 C   0  0  0  0  0  0  0  0  0
   -1.8985    0.6274    0.0000 C   0  0  0  0  0  0  0  0  0
   -1.1840    1.0399    0.0000 C   0  0  0  0  0  0  0  0  0
   -0.4695    0.6274    0.0000 C   0  0  0  0  0  0  0  0  0
    2.3884   -1.8476    0.0000 C   0  0  0  0  0  0  0  0  0
    0.2450    1.8649    0.0000 C   0  0  0  0  0  0  0  0  0
   -0.4695    2.2774    0.0000 C   0  0  0  0  0  0  0  0  0
   -0.4695    3.1024    0.0000 C   0  0  0  0  0  0  0  0  0
    0.2450    3.5149    0.0000 C   0  0  0  0  0  0  0  0  0
    0.2450    4.3399    0.0000 O   0  0  0  0  0  0  0  0  0
   -0.4695    4.7524    0.0000 C   0  0  0  0  0  0  0  0  0
    0.9594    3.1024    0.0000 C   0  0  0  0  0  0  0  0  0
    0.9594    2.2774    0.0000 C   0  0  0  0  0  0  0  0  0
  1  2  1  0  0  0  0
  1 16  1  0  0  0  0
  2  3  1  0  0  0  0
  3  4  1  0  0  0  0
  3  8  1  0  0  0  0
  4  5  1  0  0  0  0
  5  6  1  0  0  0  0
  5 15  1  0  0  0  0
  6  7  1  0  0  0  0
  7  8  1  0  0  0  0
  8  9  1  0  0  0  0
  9 10  4  0  0  0  0
  9 14  4  0  0  0  0
 10 11  4  0  0  0  0
 11 12  4  0  0  0  0
 12 13  4  0  0  0  0
 13 14  4  0  0  0  0
 16 17  4  0  0  0  0
 16 23  4  0  0  0  0
 17 18  4  0  0  0  0
 18 19  4  0  0  0  0
 19 20  1  0  0  0  0
 19 22  4  0  0  0  0
 20 21  1  0  0  0  0
 22 23  4  0  0  0  0
M  END
>  <Name_Molregno>
Femoxetine

>  <5-HT1A>
5.64

>  <DOPAMINE D2>
6.23

>  <Dopamine transporter>
5.69

>  <HISTAMINE H1>
5.38

>  <Muscarinic acetylcholine receptor M1>
7.04

>  <Muscarinic acetylcholine receptor M2>
6.82

>  <Muscarinic acetylcholine receptor M3>
6.66

>  <Muscarinic acetylcholine receptor M4>
6.33

>  <Muscarinic acetylcholine receptor M5>
6.4

>  <Norepinephrine transporter>
6.12

>  <Serotonin transporter>
7.96

$$$$
Fluorocarazolol
  Marvin  02231216192D 0   1.00000     0.00000     0

 23 25  0  0  1  0  0  0  0  0999 V2000
   -0.1270    1.0228    0.0000 F   0  0  0  0  0  0  0  0  0
    0.5874    0.6103    0.0000 C   0  0  0  0  0  0  0  0  0
    1.3019    1.0228    0.0000 C   0  0  0  0  0  0  0  0  0
    2.0164    0.6103    0.0000 N   0  0  0  0  0  0  0  0  0
    2.7309    1.0228    0.0000 C   0  0  0  0  0  0  0  0  0
    3.4453    0.6103    0.0000 C   0  0  0  0  0  0  0  0  0
    3.4453   -0.2147    0.0000 O   0  0  0  0  0  0  0  0  0
    4.1598    1.0228    0.0000 C   0  0  0  0  0  0  0  0  0
    4.8743    0.6103    0.0000 O   0  0  0  0  0  0  0  0  0
    5.5887    1.0228    0.0000 C   0  0  0  0  0  0  0  0  0
    6.3032    0.6103    0.0000 C   0  0  0  0  0  0  0  0  0
    6.4747   -0.1966    0.0000 C   0  0  0  0  0  0  0  0  0
    7.2952   -0.2829    0.0000 C   0  0  0  0  0  0  0  0  0
    7.6308    0.4708    0.0000 N   0  0  0  0  0  0  0  0  0
    7.0177    1.0228    0.0000 C   0  0  0  0  0  0  0  0  0
    7.0177    1.8478    0.0000 C   0  0  0  0  0  0  0  0  0
    6.3032    2.2603    0.0000 C   0  0  0  0  0  0  0  0  0
    5.5887    1.8478    0.0000 C   0  0  0  0  0  0  0  0  0
    7.6308   -1.0365    0.0000 C   0  0  0  0  0  0  0  0  0
    7.1459   -1.7040    0.0000 C   0  0  0  0  0  0  0  0  0
    6.3254   -1.6178    0.0000 C   0  0  0  0  0  0  0  0  0
    5.9898   -0.8641    0.0000 C   0  0  0  0  0  0  0  0  0
    1.3019    1.8478    0.0000 C   0  0  0  0  0  0  0  0  0
  1  2  1  0  0  0  0
  2  3  1  0  0  0  0
  3  4  1  0  0  0  0
  3 23  1  0  0  0  0
  4  5  1  0  0  0  0
  5  6  1  0  0  0  0
  6  7  1  0  0  0  0
  6  8  1  0  0  0  0
  8  9  1  0  0  0  0
  9 10  1  0  0  0  0
 10 11  4  0  0  0  0
 10 18  4  0  0  0  0
 11 12  4  0  0  0  0
 11 15  4  0  0  0  0
 12 13  4  0  0  0  0
 12 22  4  0  0  0  0
 13 14  4  0  0  0  0
 13 19  4  0  0  0  0
 14 15  4  0  0  0  0
 15 16  4  0  0  0  0
 16 17  4  0  0  0  0
 17 18  4  0  0  0  0
 19 20  4  0  0  0  0
 20 21  4  0  0  0  0
 21 22  4  0  0  0  0
M  STY  1   1 DAT
M  SAL   1  1  14
M  SDT   1 MRV_IMPLICIT_H                                        
M  SDD   1     0.0000    0.0000    DR    ALL  0       0  
M  SED   1 IMPL_H1
M  END
>  <Name_Molregno>
Fluorocarazolol

>  <5-HT1A>
6.97

>  <5-HT1B>
6.31

>  <5-HT1D>
5.5

>  <5-HT1E>
5

>  <5-HT3>
5

>  <5-HT5>
5

>  <5-HT6>
5

>  <5-HT7>
5.17

>  <Alpha-1A>
5.85

>  <Alpha-1B>
5.76

>  <Alpha-2A>
5.5

>  <Alpha-2B>
5.03

>  <Alpha-2C>
5.54

>  <Beta-1>
9.65

>  <Beta-2>
9.98

>  <DOPAMINE D1>
5

>  <DOPAMINE D5>
5

>  <Muscarinic acetylcholine receptor M1>
5.66

>  <Muscarinic acetylcholine receptor M2>
5

>  <Muscarinic acetylcholine receptor M3>
5.4

>  <Muscarinic acetylcholine receptor M4>
5.14

>  <Muscarinic acetylcholine receptor M5>
5.27

>  <Norepinephrine transporter>
5

>  <Serotonin transporter>
5

$$$$
FLUOXETINE
  Marvin  02231216192D 0   1.00000     0.00000     0

 22 23  0  0  1  0  0  0  0  0999 V2000
    0.2470    0.2265    0.0000 F   0  0  0  0  0  0  0  0  0
    0.9615   -0.1860    0.0000 C   0  0  0  0  0  0  0  0  0
    0.5490   -0.9005    0.0000 F   0  0  0  0  0  0  0  0  0
    1.3740    0.5285    0.0000 F   0  0  0  0  0  0  0  0  0
    1.6760   -0.5985    0.0000 C   0  0  0  0  0  0  0  0  0
    2.3904   -0.1860    0.0000 C   0  0  0  0  0  0  0  0  0
    3.1049   -0.5985    0.0000 C   0  0  0  0  0  0  0  0  0
    3.1049   -1.4235    0.0000 C   0  0  0  0  0  0  0  0  0
    3.8194   -1.8360    0.0000 O   0  0  0  0  0  0  0  0  0
    4.5339   -1.4235    0.0000 C   0  0  0  0  0  0  0  0  0
    5.2483   -1.8360    0.0000 C   0  0  0  0  0  0  0  0  0
    5.9628   -1.4235    0.0000 C   0  0  0  0  0  0  0  0  0
    6.6773   -1.8360    0.0000 N   0  0  0  0  0  0  0  0  0
    7.3917   -1.4235    0.0000 C   0  0  0  0  0  0  0  0  0
    4.5339   -0.5985    0.0000 C   0  0  0  0  0  0  0  0  0
    3.8194   -0.1860    0.0000 C   0  0  0  0  0  0  0  0  0
    3.8194    0.6390    0.0000 C   0  0  0  0  0  0  0  0  0
    4.5339    1.0515    0.0000 C   0  0  0  0  0  0  0  0  0
    5.2483    0.6390    0.0000 C   0  0  0  0  0  0  0  0  0
    5.2483   -0.1860    0.0000 C   0  0  0  0  0  0  0  0  0
    2.3904   -1.8360    0.0000 C   0  0  0  0  0  0  0  0  0
    1.6760   -1.4235    0.0000 C   0  0  0  0  0  0  0  0  0
  1  2  1  0  0  0  0
  2  3  1  0  0  0  0
  2  4  1  0  0  0  0
  2  5  1  0  0  0  0
  5  6  4  0  0  0  0
  5 22  4  0  0  0  0
  6  7  4  0  0  0  0
  7  8  4  0  0  0  0
  8  9  1  0  0  0  0
  8 21  4  0  0  0  0
  9 10  1  0  0  0  0
 10 11  1  0  0  0  0
 10 15  1  0  0  0  0
 11 12  1  0  0  0  0
 12 13  1  0  0  0  0
 13 14  1  0  0  0  0
 15 16  4  0  0  0  0
 15 20  4  0  0  0  0
 16 17  4  0  0  0  0
 17 18  4  0  0  0  0
 18 19  4  0  0  0  0
 19 20  4  0  0  0  0
 21 22  4  0  0  0  0
M  END
>  <Name_Molregno>
FLUOXETINE

>  <5-HT1A>
5

>  <5-HT2A>
6.72

>  <5-HT2C>
6.67

>  <Alpha-2A>
8.2

>  <DOPAMINE D2>
5

>  <Dopamine transporter>
5.32

>  <HISTAMINE H1>
5.62

>  <HISTAMINE H3>
5.14

>  <Muscarinic acetylcholine receptor M1>
6.05

>  <Muscarinic acetylcholine receptor M2>
5.57

>  <Muscarinic acetylcholine receptor M3>
6

>  <Muscarinic acetylcholine receptor M4>
5.54

>  <Muscarinic acetylcholine receptor M5>
5.57

>  <Norepinephrine transporter>
6.05

>  <Serotonin transporter>
8.57

$$$$
FLUPHENAZINE
  Marvin  02231216192D 0   1.00000     0.00000     0

 38 41  0  0  0  0  0  0  0  0999 V2000
   -7.1492   -1.5262    0.0000 S   0  0  0  0  0  0  0  0  0
   -7.1492   -2.3512    0.0000 C   0  0  0  0  0  0  0  0  0
   -6.4348   -2.7637    0.0000 C   0  0  0  0  0  0  0  0  0
   -5.7203   -2.3512    0.0000 N   0  0  0  0  0  0  0  0  0
   -5.7203   -1.5262    0.0000 C   0  0  0  0  0  0  0  0  0
   -6.4348   -1.1137    0.0000 C   0  0  0  0  0  0  0  0  0
   -6.4348   -0.2887    0.0000 C   0  0  0  0  0  0  0  0  0
   -5.7203    0.1238    0.0000 C   0  0  0  0  0  0  0  0  0
   -5.0058   -0.2887    0.0000 C   0  0  0  0  0  0  0  0  0
   -5.0058   -1.1137    0.0000 C   0  0  0  0  0  0  0  0  0
   -5.0058   -2.7637    0.0000 C   0  0  0  0  0  0  0  0  0
   -4.2914   -2.3512    0.0000 C   0  0  0  0  0  0  0  0  0
   -3.5769   -2.7637    0.0000 C   0  0  0  0  0  0  0  0  0
   -2.8624   -2.3512    0.0000 N   0  0  0  0  0  0  0  0  0
   -2.8624   -1.5262    0.0000 C   0  0  0  0  0  0  0  0  0
   -2.1479   -1.1137    0.0000 C   0  0  0  0  0  0  0  0  0
   -1.4335   -1.5262    0.0000 N   0  0  0  0  0  0  0  0  0
   -1.4335   -2.3512    0.0000 C   0  0  0  0  0  0  0  0  0
   -2.1479   -2.7637    0.0000 C   0  0  0  0  0  0  0  0  0
   -0.7190   -1.1137    0.0000 C   0  0  0  0  0  0  0  0  0
   -0.0045   -1.5262    0.0000 C   0  0  0  0  0  0  0  0  0
    0.7099   -1.1137    0.0000 O   0  0  0  0  0  0  0  0  0
    1.4244   -1.5262    0.0000 C   0  0  0  0  0  0  0  0  0
    1.4244   -2.3512    0.0000 O   0  0  0  0  0  0  0  0  0
    2.1389   -1.1137    0.0000 C   0  0  0  0  0  0  0  0  0
    2.8534   -1.5262    0.0000 C   0  0  0  0  0  0  0  0  0
    3.5678   -1.1137    0.0000 C   0  0  0  0  0  0  0  0  0
    4.2823   -1.5262    0.0000 C   0  0  0  0  0  0  0  0  0
    4.9968   -1.1137    0.0000 C   0  0  0  0  0  0  0  0  0
    5.7112   -1.5262    0.0000 C   0  0  0  0  0  0  0  0  0
   -6.4348   -3.5887    0.0000 C   0  0  0  0  0  0  0  0  0
   -7.1492   -4.0012    0.0000 C   0  0  0  0  0  0  0  0  0
   -7.8637   -3.5887    0.0000 C   0  0  0  0  0  0  0  0  0
   -7.8637   -2.7637    0.0000 C   0  0  0  0  0  0  0  0  0
   -7.1492   -4.8262    0.0000 C   0  0  0  0  0  0  0  0  0
   -7.1492   -5.6512    0.0000 F   0  0  0  0  0  0  0  0  0
   -7.9742   -4.8262    0.0000 F   0  0  0  0  0  0  0  0  0
   -6.3242   -4.8262    0.0000 F   0  0  0  0  0  0  0  0  0
  1  2  1  0  0  0  0
  1  6  1  0  0  0  0
  2  3  4  0  0  0  0
  2 34  4  0  0  0  0
  3  4  1  0  0  0  0
  3 31  4  0  0  0  0
  4  5  1  0  0  0  0
  4 11  1  0  0  0  0
  5  6  4  0  0  0  0
  5 10  4  0  0  0  0
  6  7  4  0  0  0  0
  7  8  4  0  0  0  0
  8  9  4  0  0  0  0
  9 10  4  0  0  0  0
 11 12  1  0  0  0  0
 12 13  1  0  0  0  0
 13 14  1  0  0  0  0
 14 15  1  0  0  0  0
 14 19  1  0  0  0  0
 15 16  1  0  0  0  0
 16 17  1  0  0  0  0
 17 18  1  0  0  0  0
 17 20  1  0  0  0  0
 18 19  1  0  0  0  0
 20 21  1  0  0  0  0
 21 22  1  0  0  0  0
 22 23  1  0  0  0  0
 23 24  2  0  0  0  0
 23 25  1  0  0  0  0
 25 26  1  0  0  0  0
 26 27  1  0  0  0  0
 27 28  1  0  0  0  0
 28 29  1  0  0  0  0
 29 30  1  0  0  0  0
 31 32  4  0  0  0  0
 32 33  4  0  0  0  0
 32 35  1  0  0  0  0
 33 34  4  0  0  0  0
 35 36  1  0  0  0  0
 35 37  1  0  0  0  0
 35 38  1  0  0  0  0
M  END
>  <Name_Molregno>
FLUPHENAZINE

>  <5-HT1A>
6.41

>  <5-HT1B>
6.48

>  <5-HT1D>
6.48

>  <5-HT1E>
6.27

>  <5-HT2A>
7.87

>  <5-HT2C>
6.05

>  <5-HT3>
5

>  <5-HT5>
6.84

>  <5-HT6>
7.46

>  <5-HT7>
8.1

>  <Alpha-1A>
8.19

>  <Alpha-1B>
7.89

>  <Alpha-2A>
6.5

>  <Alpha-2B>
7.09

>  <Alpha-2C>
7.54

>  <Beta-1>
5

>  <Beta-2>
5

>  <DOPAMINE D1>
7.55

>  <DOPAMINE D2>
9.22

>  <DOPAMINE D3>
9.33

>  <DOPAMINE D4>
7.52

>  <DOPAMINE D5>
7.82

>  <Dopamine transporter>
5

>  <HISTAMINE H1>
7.72

>  <HISTAMINE H2>
6.25

>  <HISTAMINE H3>
6

>  <HISTAMINE H4>
5

>  <Muscarinic acetylcholine receptor M1>
5.96

>  <Muscarinic acetylcholine receptor M2>
5.14

>  <Muscarinic acetylcholine receptor M3>
5.84

>  <Muscarinic acetylcholine receptor M4>
5.27

>  <Muscarinic acetylcholine receptor M5>
6.45

>  <Norepinephrine transporter>
5.51

>  <Serotonin transporter>
5.23

$$$$
Fluvoxamine
  Marvin  02231216192D 0   1.00000     0.00000     0

 22 22  0  0  0  0  0  0  0  0999 V2000
   -0.2237   -2.5344    0.0000 F   0  0  0  0  0  0  0  0  0
    0.4908   -2.1219    0.0000 C   0  0  0  0  0  0  0  0  0
    0.9033   -2.8364    0.0000 F   0  0  0  0  0  0  0  0  0
    0.0783   -1.4074    0.0000 F   0  0  0  0  0  0  0  0  0
    1.2052   -1.7094    0.0000 C   0  0  0  0  0  0  0  0  0
    1.2052   -0.8844    0.0000 C   0  0  0  0  0  0  0  0  0
    1.9197   -0.4719    0.0000 C   0  0  0  0  0  0  0  0  0
    2.6342   -0.8844    0.0000 C   0  0  0  0  0  0  0  0  0
    2.6342   -1.7094    0.0000 C   0  0  0  0  0  0  0  0  0
    1.9197   -2.1219    0.0000 C   0  0  0  0  0  0  0  0  0
    3.3487   -0.4719    0.0000 C   0  0  0  0  0  0  0  0  0
    3.3487    0.3531    0.0000 N   0  0  0  0  0  0  0  0  0
    4.0631    0.7656    0.0000 O   0  0  0  0  0  0  0  0  0
    4.0631    1.5906    0.0000 C   0  0  0  0  0  0  0  0  0
    3.3487    2.0031    0.0000 C   0  0  0  0  0  0  0  0  0
    3.3487    2.8281    0.0000 N   0  0  0  0  0  0  0  0  0
    4.0631   -0.8844    0.0000 C   0  0  0  0  0  0  0  0  0
    4.7776   -0.4719    0.0000 C   0  0  0  0  0  0  0  0  0
    5.4921   -0.8844    0.0000 C   0  0  0  0  0  0  0  0  0
    6.2065   -0.4719    0.0000 C   0  0  0  0  0  0  0  0  0
    6.9210   -0.8844    0.0000 O   0  0  0  0  0  0  0  0  0
    7.6355   -0.4719    0.0000 C   0  0  0  0  0  0  0  0  0
  1  2  1  0  0  0  0
  2  3  1  0  0  0  0
  2  4  1  0  0  0  0
  2  5  1  0  0  0  0
  5  6  4  0  0  0  0
  5 10  4  0  0  0  0
  6  7  4  0  0  0  0
  7  8  4  0  0  0  0
  8  9  4  0  0  0  0
  8 11  1  0  0  0  0
  9 10  4  0  0  0  0
 11 12  2  0  0  0  0
 11 17  1  0  0  0  0
 12 13  1  0  0  0  0
 13 14  1  0  0  0  0
 14 15  1  0  0  0  0
 15 16  1  0  0  0  0
 17 18  1  0  0  0  0
 18 19  1  0  0  0  0
 19 20  1  0  0  0  0
 20 21  1  0  0  0  0
 21 22  1  0  0  0  0
M  END
>  <Name_Molregno>
Fluvoxamine

>  <Dopamine transporter>
5.01

>  <Muscarinic acetylcholine receptor M1>
5

>  <Norepinephrine transporter>
5.71

>  <Serotonin transporter>
8.38

$$$$
HALOPERIDOL
  Marvin  02231216192D 0   1.00000     0.00000     0

 26 28  0  0  0  0  0  0  0  0999 V2000
    1.7138    2.6466    0.0000 Cl  0  0  0  0  0  0  0  0  0
    1.9960    1.8714    0.0000 C   0  0  0  0  0  0  0  0  0
    2.8084    1.7281    0.0000 C   0  0  0  0  0  0  0  0  0
    3.0906    0.9529    0.0000 C   0  0  0  0  0  0  0  0  0
    2.5603    0.3209    0.0000 C   0  0  0  0  0  0  0  0  0
    1.7478    0.4642    0.0000 C   0  0  0  0  0  0  0  0  0
    1.4657    1.2394    0.0000 C   0  0  0  0  0  0  0  0  0
    2.8425   -0.4543    0.0000 C   0  0  0  0  0  0  0  0  0
    2.0300   -0.5976    0.0000 O   0  0  0  0  0  0  0  0  0
    3.5569   -0.0418    0.0000 C   0  0  0  0  0  0  0  0  0
    4.2714   -0.4543    0.0000 C   0  0  0  0  0  0  0  0  0
    4.2714   -1.2793    0.0000 N   0  0  0  0  0  0  0  0  0
    3.5569   -1.6918    0.0000 C   0  0  0  0  0  0  0  0  0
    2.8425   -1.2793    0.0000 C   0  0  0  0  0  0  0  0  0
    4.9859   -1.6918    0.0000 C   0  0  0  0  0  0  0  0  0
    5.7003   -1.2793    0.0000 C   0  0  0  0  0  0  0  0  0
    6.4148   -1.6918    0.0000 C   0  0  0  0  0  0  0  0  0
    7.1293   -1.2793    0.0000 C   0  0  0  0  0  0  0  0  0
    7.1293   -0.4543    0.0000 O   0  0  0  0  0  0  0  0  0
    7.8438   -1.6918    0.0000 C   0  0  0  0  0  0  0  0  0
    8.5582   -1.2793    0.0000 C   0  0  0  0  0  0  0  0  0
    9.2727   -1.6918    0.0000 C   0  0  0  0  0  0  0  0  0
    9.2727   -2.5168    0.0000 C   0  0  0  0  0  0  0  0  0
    9.9872   -2.9293    0.0000 F   0  0  0  0  0  0  0  0  0
    8.5582   -2.9293    0.0000 C   0  0  0  0  0  0  0  0  0
    7.8438   -2.5168    0.0000 C   0  0  0  0  0  0  0  0  0
  1  2  1  0  0  0  0
  2  3  4  0  0  0  0
  2  7  4  0  0  0  0
  3  4  4  0  0  0  0
  4  5  4  0  0  0  0
  5  6  4  0  0  0  0
  5  8  1  0  0  0  0
  6  7  4  0  0  0  0
  8  9  1  0  0  0  0
  8 10  1  0  0  0  0
  8 14  1  0  0  0  0
 10 11  1  0  0  0  0
 11 12  1  0  0  0  0
 12 13  1  0  0  0  0
 12 15  1  0  0  0  0
 13 14  1  0  0  0  0
 15 16  1  0  0  0  0
 16 17  1  0  0  0  0
 17 18  1  0  0  0  0
 18 19  2  0  0  0  0
 18 20  1  0  0  0  0
 20 21  4  0  0  0  0
 20 26  4  0  0  0  0
 21 22  4  0  0  0  0
 22 23  4  0  0  0  0
 23 24  1  0  0  0  0
 23 25  4  0  0  0  0
 25 26  4  0  0  0  0
M  END
>  <Name_Molregno>
HALOPERIDOL

>  <5-HT1A>
5.67

>  <5-HT1B>
6.63

>  <5-HT1D>
5.56

>  <5-HT1E>
5.15

>  <5-HT2A>
7.01

>  <5-HT2C>
5.24

>  <5-HT3>
5

>  <5-HT5>
5.65

>  <5-HT6>
5.28

>  <5-HT7>
6.32

>  <Alpha-1A>
7.92

>  <Alpha-1B>
8.1

>  <Alpha-2A>
6.04

>  <Alpha-2B>
6.32

>  <Alpha-2C>
6.34

>  <Beta-1>
5

>  <Beta-2>
5.15

>  <DOPAMINE D1>
7.22

>  <DOPAMINE D2>
8.75

>  <DOPAMINE D3>
8.33

>  <DOPAMINE D4>
8.29

>  <DOPAMINE D5>
7.03

>  <Dopamine transporter>
5

>  <HISTAMINE H1>
6.04

>  <HISTAMINE H2>
6

>  <HISTAMINE H4>
5

>  <Muscarinic acetylcholine receptor M1>
5.4

>  <Muscarinic acetylcholine receptor M2>
5

>  <Muscarinic acetylcholine receptor M3>
5

>  <Muscarinic acetylcholine receptor M4>
5

>  <Muscarinic acetylcholine receptor M5>
5.59

>  <Norepinephrine transporter>
5.68

>  <Serotonin transporter>
5.74

$$$$
Hydroxynefazodone
  Marvin  02231216192D 0   1.00000     0.00000     0

 34 37  0  0  1  0  0  0  0  0999 V2000
   11.5941    3.1925    0.0000 Cl  0  0  0  0  0  0  0  0  0
   10.8796    2.7800    0.0000 C   0  0  0  0  0  0  0  0  0
   10.8796    1.9550    0.0000 C   0  0  0  0  0  0  0  0  0
   10.1651    1.5425    0.0000 C   0  0  0  0  0  0  0  0  0
    9.4507    1.9550    0.0000 C   0  0  0  0  0  0  0  0  0
    8.7362    1.5425    0.0000 N   0  0  0  0  0  0  0  0  0
    8.7362    0.7175    0.0000 C   0  0  0  0  0  0  0  0  0
    8.0217    0.3050    0.0000 C   0  0  0  0  0  0  0  0  0
    7.3073    0.7175    0.0000 N   0  0  0  0  0  0  0  0  0
    7.3073    1.5425    0.0000 C   0  0  0  0  0  0  0  0  0
    8.0217    1.9550    0.0000 C   0  0  0  0  0  0  0  0  0
    6.5928    0.3050    0.0000 C   0  0  0  0  0  0  0  0  0
    6.5928   -0.5200    0.0000 C   0  0  0  0  0  0  0  0  0
    5.8783   -0.9325    0.0000 C   0  0  0  0  0  0  0  0  0
    5.8783   -1.7575    0.0000 N   0  0  0  0  0  0  0  0  0
    6.5458   -2.2424    0.0000 N   0  0  0  0  0  0  0  0  0
    6.2908   -3.0270    0.0000 C   0  0  0  0  0  0  0  0  0
    5.4658   -3.0270    0.0000 N   0  0  0  0  0  0  0  0  0
    4.9809   -3.6945    0.0000 C   0  0  0  0  0  0  0  0  0
    4.1604   -3.6082    0.0000 C   0  0  0  0  0  0  0  0  0
    3.6755   -4.2757    0.0000 O   0  0  0  0  0  0  0  0  0
    2.8550   -4.1894    0.0000 C   0  0  0  0  0  0  0  0  0
    2.3701   -4.8569    0.0000 C   0  0  0  0  0  0  0  0  0
    1.5496   -4.7706    0.0000 C   0  0  0  0  0  0  0  0  0
    1.2141   -4.0169    0.0000 C   0  0  0  0  0  0  0  0  0
    1.6990   -3.3495    0.0000 C   0  0  0  0  0  0  0  0  0
    2.5195   -3.4357    0.0000 C   0  0  0  0  0  0  0  0  0
    5.2109   -2.2424    0.0000 C   0  0  0  0  0  0  0  0  0
    4.4263   -1.9875    0.0000 O   0  0  0  0  0  0  0  0  0
    6.7757   -3.6945    0.0000 C   0  0  0  0  0  0  0  0  0
    6.4402   -4.4481    0.0000 O   0  0  0  0  0  0  0  0  0
    7.5962   -3.6082    0.0000 C   0  0  0  0  0  0  0  0  0
    9.4507    2.7800    0.0000 C   0  0  0  0  0  0  0  0  0
   10.1651    3.1925    0.0000 C   0  0  0  0  0  0  0  0  0
  1  2  1  0  0  0  0
  2  3  4  0  0  0  0
  2 34  4  0  0  0  0
  3  4  4  0  0  0  0
  4  5  4  0  0  0  0
  5  6  1  0  0  0  0
  5 33  4  0  0  0  0
  6  7  1  0  0  0  0
  6 11  1  0  0  0  0
  7  8  1  0  0  0  0
  8  9  1  0  0  0  0
  9 10  1  0  0  0  0
  9 12  1  0  0  0  0
 10 11  1  0  0  0  0
 12 13  1  0  0  0  0
 13 14  1  0  0  0  0
 14 15  1  0  0  0  0
 15 16  1  0  0  0  0
 15 28  1  0  0  0  0
 16 17  2  0  0  0  0
 17 18  1  0  0  0  0
 17 30  1  0  0  0  0
 18 19  1  0  0  0  0
 18 28  1  0  0  0  0
 19 20  1  0  0  0  0
 20 21  1  0  0  0  0
 21 22  1  0  0  0  0
 22 23  4  0  0  0  0
 22 27  4  0  0  0  0
 23 24  4  0  0  0  0
 24 25  4  0  0  0  0
 25 26  4  0  0  0  0
 26 27  4  0  0  0  0
 28 29  2  0  0  0  0
 30 31  1  0  0  0  0
 30 32  1  0  0  0  0
 33 34  4  0  0  0  0
M  END
>  <Name_Molregno>
Hydroxynefazodone

>  <Norepinephrine transporter>
6.08

>  <Serotonin transporter>
5.95

$$$$
Hyperforin
  Marvin  02231216192D 0   1.00000     0.00000     0

 39 40  0  0  1  0  0  0  0  0999 V2000
   -0.0475    3.0141    0.0000 O   0  0  0  0  0  0  0  0  0
    0.7326    2.5988    0.0000 C   0  0  0  0  0  0  0  0  0
    1.6516    2.5995    0.0000 C   0  0  0  0  0  0  0  0  0
    1.7130    1.6464    0.0000 C   0  0  0  0  0  0  0  0  0
    1.3009    1.0655    0.0000 C   0  0  0  0  0  0  0  0  0
    0.9271    0.2926    0.0000 C   0  0  0  0  0  0  0  0  0
    0.6406   -0.4973    0.0000 C   0  0  0  0  0  0  0  0  0
   -0.1718   -0.6414    0.0000 C   0  0  0  0  0  0  0  0  0
   -0.7027   -0.0100    0.0000 C   0  0  0  0  0  0  0  0  0
   -0.4531   -1.4170    0.0000 C   0  0  0  0  0  0  0  0  0
    2.1172    1.2450    0.0000 C   0  0  0  0  0  0  0  0  0
    2.4176    0.4250    0.0000 C   0  0  0  0  0  0  0  0  0
    3.1181   -0.0803    0.0000 C   0  0  0  0  0  0  0  0  0
    3.0346   -0.9010    0.0000 C   0  0  0  0  0  0  0  0  0
    2.2821   -1.2391    0.0000 C   0  0  0  0  0  0  0  0  0
    1.6130   -0.7565    0.0000 C   0  0  0  0  0  0  0  0  0
    2.1987   -2.0599    0.0000 C   0  0  0  0  0  0  0  0  0
    2.9989    1.2958    0.0000 C   0  0  0  0  0  0  0  0  0
    2.0702    2.2319    0.0000 C   0  0  0  0  0  0  0  0  0
    2.8036    2.7016    0.0000 C   0  0  0  0  0  0  0  0  0
    2.8813    3.6702    0.0000 O   0  0  0  0  0  0  0  0  0
    3.6516    2.8271    0.0000 C   0  0  0  0  0  0  0  0  0
    3.9551    3.5942    0.0000 C   0  0  0  0  0  0  0  0  0
    4.1642    2.1806    0.0000 C   0  0  0  0  0  0  0  0  0
    2.0364    2.8705    0.0000 C   0  0  0  0  0  0  0  0  0
    2.9600    3.1637    0.0000 O   0  0  0  0  0  0  0  0  0
    1.1102    2.2212    0.0000 C   0  0  0  0  0  0  0  0  0
    0.8447    3.1353    0.0000 O   0  0  0  0  0  0  0  0  0
    0.6057    1.7969    0.0000 C   0  0  0  0  0  0  0  0  0
   -0.1558    1.3974    0.0000 C   0  0  0  0  0  0  0  0  0
   -0.9549    1.0682    0.0000 C   0  0  0  0  0  0  0  0  0
   -1.6085    1.5717    0.0000 C   0  0  0  0  0  0  0  0  0
   -2.3713    1.2575    0.0000 C   0  0  0  0  0  0  0  0  0
   -1.4992    2.3895    0.0000 C   0  0  0  0  0  0  0  0  0
    1.5780    3.5970    0.0000 C   0  0  0  0  0  0  0  0  0
    1.5386    4.4833    0.0000 C   0  0  0  0  0  0  0  0  0
    0.8065    4.8636    0.0000 C   0  0  0  0  0  0  0  0  0
    0.7698    5.6878    0.0000 C   0  0  0  0  0  0  0  0  0
    0.1111    4.4198    0.0000 C   0  0  0  0  0  0  0  0  0
  1  2  1  0  0  0  0
  2  3  1  0  0  0  0
  2 29  2  0  0  0  0
  3  4  1  0  0  0  0
  3 25  1  0  0  0  0
  3 35  1  0  0  0  0
  4  5  1  0  0  0  0
  5  6  1  0  0  0  0
  5 11  1  0  0  0  0
  6  7  1  0  0  0  0
  7  8  2  0  0  0  0
  8  9  1  0  0  0  0
  8 10  1  0  0  0  0
 11 12  1  0  0  0  0
 11 18  1  0  0  0  0
 11 19  1  0  0  0  0
 12 13  1  0  0  0  0
 13 14  1  0  0  0  0
 14 15  2  0  0  0  0
 15 16  1  0  0  0  0
 15 17  1  0  0  0  0
 19 20  1  0  0  0  0
 19 25  1  0  0  0  0
 19 27  1  0  0  0  0
 20 21  2  0  0  0  0
 20 22  1  0  0  0  0
 22 23  1  0  0  0  0
 22 24  1  0  0  0  0
 25 26  2  0  0  0  0
 27 28  2  0  0  0  0
 27 29  1  0  0  0  0
 29 30  1  0  0  0  0
 30 31  1  0  0  0  0
 31 32  2  0  0  0  0
 32 33  1  0  0  0  0
 32 34  1  0  0  0  0
 35 36  1  0  0  0  0
 36 37  2  0  0  0  0
 37 38  1  0  0  0  0
 37 39  1  0  0  0  0
M  END
>  <Name_Molregno>
Hyperforin

>  <5-HT1A>
5

>  <5-HT1D>
5

>  <5-HT3>
5

>  <5-HT5>
5

>  <5-HT6>
5

>  <5-HT7>
5

>  <Alpha-1A>
5

>  <Alpha-1B>
5

>  <Alpha-2A>
5

>  <Alpha-2B>
5

>  <Alpha-2C>
5

>  <DOPAMINE D1>
6.22

>  <DOPAMINE D5>
5

>  <Muscarinic acetylcholine receptor M1>
5

>  <Muscarinic acetylcholine receptor M2>
5

>  <Muscarinic acetylcholine receptor M3>
5

>  <Muscarinic acetylcholine receptor M4>
5

>  <Muscarinic acetylcholine receptor M5>
5

>  <Norepinephrine transporter>
5

>  <Serotonin transporter>
5

$$$$
Hypericin
  Marvin  02231216192D 0   1.00000     0.00000     0

 39 46  0  0  0  0  0  0  0  0999 V2000
   -0.3746   -3.0738    0.0000 O   0  0  0  0  0  0  0  0  0
    0.1655   -2.4502    0.0000 C   0  0  0  0  0  0  0  0  0
    0.9756   -2.6061    0.0000 C   0  0  0  0  0  0  0  0  0
    1.5157   -1.9824    0.0000 C   0  0  0  0  0  0  0  0  0
    1.2457   -1.2029    0.0000 C   0  0  0  0  0  0  0  0  0
    1.7858   -0.5792    0.0000 C   0  0  0  0  0  0  0  0  0
    2.5959   -0.7352    0.0000 C   0  0  0  0  0  0  0  0  0
    3.1360   -0.1115    0.0000 C   0  0  0  0  0  0  0  0  0
    3.9461   -0.2674    0.0000 C   0  0  0  0  0  0  0  0  0
    4.4862    0.3562    0.0000 O   0  0  0  0  0  0  0  0  0
    4.2162   -1.0470    0.0000 C   0  0  0  0  0  0  0  0  0
    3.6761   -1.6706    0.0000 C   0  0  0  0  0  0  0  0  0
    3.9461   -2.4502    0.0000 C   0  0  0  0  0  0  0  0  0
    3.4060   -3.0738    0.0000 C   0  0  0  0  0  0  0  0  0
    2.5959   -2.9179    0.0000 C   0  0  0  0  0  0  0  0  0
    2.0558   -3.5415    0.0000 C   0  0  0  0  0  0  0  0  0
    1.2457   -3.3856    0.0000 C   0  0  0  0  0  0  0  0  0
    0.7056   -4.0093    0.0000 O   0  0  0  0  0  0  0  0  0
    2.3258   -4.3211    0.0000 C   0  0  0  0  0  0  0  0  0
    1.7858   -4.9447    0.0000 O   0  0  0  0  0  0  0  0  0
    3.1360   -4.4770    0.0000 C   0  0  0  0  0  0  0  0  0
    3.6761   -3.8534    0.0000 C   0  0  0  0  0  0  0  0  0
    4.4862   -4.0093    0.0000 O   0  0  0  0  0  0  0  0  0
    2.3258   -2.1384    0.0000 C   0  0  0  0  0  0  0  0  0
    2.8659   -1.5147    0.0000 C   0  0  0  0  0  0  0  0  0
    4.7562   -2.6061    0.0000 C   0  0  0  0  0  0  0  0  0
    5.0263   -3.3856    0.0000 O   0  0  0  0  0  0  0  0  0
    5.2963   -1.9824    0.0000 C   0  0  0  0  0  0  0  0  0
    5.0263   -1.2029    0.0000 C   0  0  0  0  0  0  0  0  0
    5.5664   -0.5792    0.0000 O   0  0  0  0  0  0  0  0  0
    2.8659    0.6680    0.0000 C   0  0  0  0  0  0  0  0  0
    3.4060    1.2917    0.0000 O   0  0  0  0  0  0  0  0  0
    2.0558    0.8239    0.0000 C   0  0  0  0  0  0  0  0  0
    1.5157    0.2003    0.0000 C   0  0  0  0  0  0  0  0  0
    0.7056    0.3562    0.0000 C   0  0  0  0  0  0  0  0  0
    0.4355   -1.0470    0.0000 C   0  0  0  0  0  0  0  0  0
   -0.1046   -1.6706    0.0000 C   0  0  0  0  0  0  0  0  0
    0.1655   -0.2674    0.0000 C   0  0  0  0  0  0  0  0  0
   -0.6446   -0.1115    0.0000 O   0  0  0  0  0  0  0  0  0
  1  2  1  0  0  0  0
  2  3  4  0  0  0  0
  2 37  4  0  0  0  0
  3  4  4  0  0  0  0
  3 17  1  0  0  0  0
  4  5  4  0  0  0  0
  4 24  4  0  0  0  0
  5  6  4  0  0  0  0
  5 36  4  0  0  0  0
  6  7  4  0  0  0  0
  6 34  4  0  0  0  0
  7  8  4  0  0  0  0
  7 25  4  0  0  0  0
  8  9  1  0  0  0  0
  8 31  4  0  0  0  0
  9 10  2  0  0  0  0
  9 11  1  0  0  0  0
 11 12  4  0  0  0  0
 11 29  4  0  0  0  0
 12 13  4  0  0  0  0
 12 25  4  0  0  0  0
 13 14  4  0  0  0  0
 13 26  4  0  0  0  0
 14 15  4  0  0  0  0
 14 22  4  0  0  0  0
 15 16  4  0  0  0  0
 15 24  4  0  0  0  0
 16 17  1  0  0  0  0
 16 19  4  0  0  0  0
 17 18  2  0  0  0  0
 19 20  1  0  0  0  0
 19 21  4  0  0  0  0
 21 22  4  0  0  0  0
 22 23  1  0  0  0  0
 24 25  4  0  0  0  0
 26 27  1  0  0  0  0
 26 28  4  0  0  0  0
 28 29  4  0  0  0  0
 29 30  1  0  0  0  0
 31 32  1  0  0  0  0
 31 33  4  0  0  0  0
 33 34  4  0  0  0  0
 34 35  1  0  0  0  0
 36 37  4  0  0  0  0
 36 38  1  0  0  0  0
 38 39  1  0  0  0  0
M  END
>  <Name_Molregno>
Hypericin

>  <5-HT1A>
5

>  <5-HT1D>
5

>  <5-HT3>
5

>  <5-HT5>
5

>  <5-HT6>
5

>  <5-HT7>
5

>  <Alpha-1A>
5

>  <Alpha-1B>
5

>  <Alpha-2A>
5

>  <Alpha-2B>
5

>  <Alpha-2C>
5

>  <DOPAMINE D1>
5

>  <DOPAMINE D5>
5

>  <Muscarinic acetylcholine receptor M1>
5

>  <Muscarinic acetylcholine receptor M2>
5

>  <Muscarinic acetylcholine receptor M3>
5

>  <Muscarinic acetylcholine receptor M4>
5

>  <Muscarinic acetylcholine receptor M5>
5

>  <Norepinephrine transporter>
5

>  <Serotonin transporter>
5

$$$$
Hyperoside
  Marvin  02231216192D 0   1.00000     0.00000     0

 33 36  0  0  1  0  0  0  0  0999 V2000
    1.3731    1.4076    0.0000 O   0  0  0  0  0  0  0  0  0
    1.3731    2.2326    0.0000 C   0  0  0  0  0  0  0  0  0
    2.0876    2.6451    0.0000 C   0  0  0  0  0  0  0  0  0
    2.0876    3.4701    0.0000 O   0  0  0  0  0  0  0  0  0
    0.6587    2.6451    0.0000 C   0  0  0  0  0  0  0  0  0
    0.6587    3.4701    0.0000 O   0  0  0  0  0  0  0  0  0
   -0.0558    2.2326    0.0000 C   0  0  0  0  0  0  0  0  0
   -0.7703    2.6451    0.0000 O   0  0  0  0  0  0  0  0  0
   -0.0558    1.4076    0.0000 C   0  0  0  0  0  0  0  0  0
   -0.7703    0.9951    0.0000 O   0  0  0  0  0  0  0  0  0
    0.6587    0.9951    0.0000 C   0  0  0  0  0  0  0  0  0
    0.6587    0.1701    0.0000 O   0  0  0  0  0  0  0  0  0
    1.3731   -0.2424    0.0000 C   0  0  0  0  0  0  0  0  0
    1.3731   -1.0674    0.0000 C   0  0  0  0  0  0  0  0  0
    2.0876   -1.4799    0.0000 O   0  0  0  0  0  0  0  0  0
    2.8021   -1.0674    0.0000 C   0  0  0  0  0  0  0  0  0
    2.8021   -0.2424    0.0000 C   0  0  0  0  0  0  0  0  0
    2.0876    0.1701    0.0000 C   0  0  0  0  0  0  0  0  0
    2.0876    0.9951    0.0000 O   0  0  0  0  0  0  0  0  0
    3.5166    0.1701    0.0000 C   0  0  0  0  0  0  0  0  0
    3.5166    0.9951    0.0000 O   0  0  0  0  0  0  0  0  0
    4.2310   -0.2424    0.0000 C   0  0  0  0  0  0  0  0  0
    4.2310   -1.0674    0.0000 C   0  0  0  0  0  0  0  0  0
    4.9455   -1.4799    0.0000 O   0  0  0  0  0  0  0  0  0
    3.5166   -1.4799    0.0000 C   0  0  0  0  0  0  0  0  0
    0.6587   -1.4799    0.0000 C   0  0  0  0  0  0  0  0  0
    0.6587   -2.3049    0.0000 C   0  0  0  0  0  0  0  0  0
   -0.0558   -2.7174    0.0000 C   0  0  0  0  0  0  0  0  0
   -0.0558   -3.5424    0.0000 O   0  0  0  0  0  0  0  0  0
   -0.7703   -2.3049    0.0000 C   0  0  0  0  0  0  0  0  0
   -1.4847   -2.7174    0.0000 O   0  0  0  0  0  0  0  0  0
   -0.7703   -1.4799    0.0000 C   0  0  0  0  0  0  0  0  0
   -0.0558   -1.0674    0.0000 C   0  0  0  0  0  0  0  0  0
  1  2  1  0  0  0  0
  1 11  1  0  0  0  0
  2  3  1  0  0  0  0
  2  5  1  0  0  0  0
  3  4  1  0  0  0  0
  5  6  1  0  0  0  0
  5  7  1  0  0  0  0
  7  8  1  0  0  0  0
  7  9  1  0  0  0  0
  9 10  1  0  0  0  0
  9 11  1  0  0  0  0
 11 12  1  0  0  0  0
 12 13  1  0  0  0  0
 13 14  2  0  0  0  0
 13 18  1  0  0  0  0
 14 15  1  0  0  0  0
 14 26  1  0  0  0  0
 15 16  1  0  0  0  0
 16 17  1  0  0  0  0
 16 25  2  0  0  0  0
 17 18  2  0  0  0  0
 17 20  1  0  0  0  0
 18 19  1  0  0  0  0
 20 21  1  0  0  0  0
 20 22  2  0  0  0  0
 22 23  1  0  0  0  0
 23 24  2  0  0  0  0
 23 25  1  0  0  0  0
 26 27  4  0  0  0  0
 26 33  4  0  0  0  0
 27 28  4  0  0  0  0
 28 29  1  0  0  0  0
 28 30  4  0  0  0  0
 30 31  1  0  0  0  0
 30 32  4  0  0  0  0
 32 33  4  0  0  0  0
M  END
>  <Name_Molregno>
Hyperoside

>  <5-HT1A>
5

>  <5-HT1D>
5

>  <5-HT3>
5

>  <5-HT5>
5

>  <5-HT6>
5

>  <5-HT7>
5

>  <Alpha-1A>
5

>  <Alpha-1B>
5

>  <Alpha-2A>
5.38

>  <Alpha-2B>
5

>  <Alpha-2C>
5.13

>  <DOPAMINE D1>
5

>  <DOPAMINE D5>
5

>  <Muscarinic acetylcholine receptor M1>
5

>  <Muscarinic acetylcholine receptor M2>
5

>  <Muscarinic acetylcholine receptor M3>
5

>  <Muscarinic acetylcholine receptor M4>
5

>  <Muscarinic acetylcholine receptor M5>
5

>  <Norepinephrine transporter>
5

>  <Serotonin transporter>
5

$$$$
ibuprofen
  Marvin  02231216192D 0   1.00000     0.00000     0

 15 15  0  0  1  0  0  0  0  0999 V2000
    3.0591   -3.4943    0.0000 O   0  0  0  0  0  0  0  0  0
    3.0591   -2.6693    0.0000 C   0  0  0  0  0  0  0  0  0
    3.7735   -2.2568    0.0000 O   0  0  0  0  0  0  0  0  0
    2.3446   -2.2568    0.0000 C   0  0  0  0  0  0  0  0  0
    1.6301   -2.6693    0.0000 C   0  0  0  0  0  0  0  0  0
    2.3446   -1.4318    0.0000 C   0  0  0  0  0  0  0  0  0
    1.6301   -1.0193    0.0000 C   0  0  0  0  0  0  0  0  0
    1.6301   -0.1943    0.0000 C   0  0  0  0  0  0  0  0  0
    2.3446    0.2182    0.0000 C   0  0  0  0  0  0  0  0  0
    3.0591   -0.1943    0.0000 C   0  0  0  0  0  0  0  0  0
    3.0591   -1.0193    0.0000 C   0  0  0  0  0  0  0  0  0
    2.3446    1.0432    0.0000 C   0  0  0  0  0  0  0  0  0
    3.0591    1.4557    0.0000 C   0  0  0  0  0  0  0  0  0
    3.0591    2.2807    0.0000 C   0  0  0  0  0  0  0  0  0
    3.7735    1.0432    0.0000 C   0  0  0  0  0  0  0  0  0
  1  2  1  0  0  0  0
  2  3  2  0  0  0  0
  2  4  1  0  0  0  0
  4  5  1  0  0  0  0
  4  6  1  0  0  0  0
  6  7  4  0  0  0  0
  6 11  4  0  0  0  0
  7  8  4  0  0  0  0
  8  9  4  0  0  0  0
  9 10  4  0  0  0  0
  9 12  1  0  0  0  0
 10 11  4  0  0  0  0
 12 13  1  0  0  0  0
 13 14  1  0  0  0  0
 13 15  1  0  0  0  0
M  END
>  <Name_Molregno>
ibuprofen

>  <5-HT1A>
5

>  <5-HT1B>
5

>  <5-HT1D>
5

>  <5-HT1E>
5

>  <5-HT2A>
5

>  <5-HT3>
5

>  <5-HT6>
5

>  <5-HT7>
5

>  <Alpha-1A>
5

>  <Alpha-1B>
5

>  <Alpha-2A>
5

>  <Alpha-2B>
5

>  <Alpha-2C>
5

>  <DOPAMINE D1>
5

>  <DOPAMINE D2>
5

>  <DOPAMINE D4>
5

>  <DOPAMINE D5>
5

>  <Dopamine transporter>
5

>  <HISTAMINE H1>
5

>  <HISTAMINE H2>
5

>  <Muscarinic acetylcholine receptor M2>
5

>  <Muscarinic acetylcholine receptor M5>
5

>  <Norepinephrine transporter>
5

>  <Serotonin transporter>
5

$$$$
ILOPERIDONE
  Marvin  02231216192D 0   1.00000     0.00000     0

 31 34  0  0  0  0  0  0  0  0999 V2000
    9.8408   -5.0338    0.0000 F   0  0  0  0  0  0  0  0  0
    9.1263   -4.6213    0.0000 C   0  0  0  0  0  0  0  0  0
    8.4119   -5.0338    0.0000 C   0  0  0  0  0  0  0  0  0
    7.6974   -4.6213    0.0000 C   0  0  0  0  0  0  0  0  0
    6.9128   -4.8762    0.0000 O   0  0  0  0  0  0  0  0  0
    6.4279   -4.2088    0.0000 N   0  0  0  0  0  0  0  0  0
    6.9128   -3.5413    0.0000 C   0  0  0  0  0  0  0  0  0
    7.6974   -3.7963    0.0000 C   0  0  0  0  0  0  0  0  0
    8.4119   -3.3838    0.0000 C   0  0  0  0  0  0  0  0  0
    9.1263   -3.7963    0.0000 C   0  0  0  0  0  0  0  0  0
    6.6578   -2.7567    0.0000 C   0  0  0  0  0  0  0  0  0
    5.8509   -2.5852    0.0000 C   0  0  0  0  0  0  0  0  0
    5.5959   -1.8006    0.0000 C   0  0  0  0  0  0  0  0  0
    6.1480   -1.1875    0.0000 N   0  0  0  0  0  0  0  0  0
    6.9549   -1.3590    0.0000 C   0  0  0  0  0  0  0  0  0
    7.2099   -2.1436    0.0000 C   0  0  0  0  0  0  0  0  0
    5.8930   -0.4028    0.0000 C   0  0  0  0  0  0  0  0  0
    5.0861   -0.2313    0.0000 C   0  0  0  0  0  0  0  0  0
    4.8311    0.5533    0.0000 C   0  0  0  0  0  0  0  0  0
    4.0241    0.7248    0.0000 O   0  0  0  0  0  0  0  0  0
    3.7692    1.5095    0.0000 C   0  0  0  0  0  0  0  0  0
    2.9622    1.6810    0.0000 C   0  0  0  0  0  0  0  0  0
    2.7073    2.4656    0.0000 C   0  0  0  0  0  0  0  0  0
    3.2593    3.0787    0.0000 C   0  0  0  0  0  0  0  0  0
    4.0663    2.9072    0.0000 C   0  0  0  0  0  0  0  0  0
    4.3212    2.1225    0.0000 C   0  0  0  0  0  0  0  0  0
    5.1282    1.9510    0.0000 O   0  0  0  0  0  0  0  0  0
    5.6802    2.5641    0.0000 C   0  0  0  0  0  0  0  0  0
    3.0044    3.8633    0.0000 C   0  0  0  0  0  0  0  0  0
    2.1974    4.0348    0.0000 O   0  0  0  0  0  0  0  0  0
    3.5564    4.4764    0.0000 C   0  0  0  0  0  0  0  0  0
  1  2  1  0  0  0  0
  2  3  4  0  0  0  0
  2 10  4  0  0  0  0
  3  4  4  0  0  0  0
  4  5  4  0  0  0  0
  4  8  4  0  0  0  0
  5  6  4  0  0  0  0
  6  7  4  0  0  0  0
  7  8  4  0  0  0  0
  7 11  1  0  0  0  0
  8  9  4  0  0  0  0
  9 10  4  0  0  0  0
 11 12  1  0  0  0  0
 11 16  1  0  0  0  0
 12 13  1  0  0  0  0
 13 14  1  0  0  0  0
 14 15  1  0  0  0  0
 14 17  1  0  0  0  0
 15 16  1  0  0  0  0
 17 18  1  0  0  0  0
 18 19  1  0  0  0  0
 19 20  1  0  0  0  0
 20 21  1  0  0  0  0
 21 22  4  0  0  0  0
 21 26  4  0  0  0  0
 22 23  4  0  0  0  0
 23 24  4  0  0  0  0
 24 25  4  0  0  0  0
 24 29  1  0  0  0  0
 25 26  4  0  0  0  0
 26 27  1  0  0  0  0
 27 28  1  0  0  0  0
 29 30  2  0  0  0  0
 29 31  1  0  0  0  0
M  END
>  <Name_Molregno>
ILOPERIDONE

>  <5-HT1A>
7.18

>  <5-HT1B>
7.05

>  <5-HT1D>
7.82

>  <5-HT2A>
9.46

>  <5-HT2C>
7.27

>  <5-HT3>
5

>  <5-HT6>
7.2

>  <5-HT7>
6.95

>  <Alpha-2A>
6.79

>  <Alpha-2B>
6.79

>  <Alpha-2C>
7.79

>  <Beta-1>
5

>  <Beta-2>
5

>  <DOPAMINE D1>
7.02

>  <DOPAMINE D2>
8.23

>  <DOPAMINE D3>
8

>  <DOPAMINE D4>
7.96

>  <DOPAMINE D5>
6.5

>  <Dopamine transporter>
5.53

>  <HISTAMINE H1>
7.91

>  <Muscarinic acetylcholine receptor M1>
5.31

>  <Muscarinic acetylcholine receptor M2>
5.48

>  <Muscarinic acetylcholine receptor M3>
5

>  <Muscarinic acetylcholine receptor M4>
5.08

>  <Muscarinic acetylcholine receptor M5>
5

>  <Norepinephrine transporter>
5.83

$$$$
IMIPRAMINE
  Marvin  02231216192D 0   1.00000     0.00000     0

 21 23  0  0  0  0  0  0  0  0999 V2000
   -0.5243    1.2470    0.0000 N   0  0  0  0  0  0  0  0  0
    0.1902    0.8345    0.0000 C   0  0  0  0  0  0  0  0  0
    0.9046    1.2470    0.0000 C   0  0  0  0  0  0  0  0  0
    1.6191    0.8345    0.0000 C   0  0  0  0  0  0  0  0  0
    2.3336    1.2470    0.0000 N   0  0  0  0  0  0  0  0  0
    2.2719    2.0697    0.0000 C   0  0  0  0  0  0  0  0  0
    2.8767    2.6309    0.0000 C   0  0  0  0  0  0  0  0  0
    3.6925    2.5079    0.0000 C   0  0  0  0  0  0  0  0  0
    4.1050    1.7934    0.0000 C   0  0  0  0  0  0  0  0  0
    3.8036    1.0255    0.0000 C   0  0  0  0  0  0  0  0  0
    3.0152    0.7823    0.0000 C   0  0  0  0  0  0  0  0  0
    2.8316   -0.0220    0.0000 C   0  0  0  0  0  0  0  0  0
    3.4364   -0.5832    0.0000 C   0  0  0  0  0  0  0  0  0
    4.2248   -0.3400    0.0000 C   0  0  0  0  0  0  0  0  0
    4.4083    0.4643    0.0000 C   0  0  0  0  0  0  0  0  0
    2.6931    3.4352    0.0000 C   0  0  0  0  0  0  0  0  0
    1.9048    3.6784    0.0000 C   0  0  0  0  0  0  0  0  0
    1.3000    3.1172    0.0000 C   0  0  0  0  0  0  0  0  0
    1.4836    2.3129    0.0000 C   0  0  0  0  0  0  0  0  0
   -1.2388    0.8345    0.0000 C   0  0  0  0  0  0  0  0  0
   -0.5243    2.0720    0.0000 C   0  0  0  0  0  0  0  0  0
  1  2  1  0  0  0  0
  1 20  1  0  0  0  0
  1 21  1  0  0  0  0
  2  3  1  0  0  0  0
  3  4  1  0  0  0  0
  4  5  1  0  0  0  0
  5  6  1  0  0  0  0
  5 11  1  0  0  0  0
  6  7  4  0  0  0  0
  6 19  4  0  0  0  0
  7  8  1  0  0  0  0
  7 16  4  0  0  0  0
  8  9  1  0  0  0  0
  9 10  1  0  0  0  0
 10 11  4  0  0  0  0
 10 15  4  0  0  0  0
 11 12  4  0  0  0  0
 12 13  4  0  0  0  0
 13 14  4  0  0  0  0
 14 15  4  0  0  0  0
 16 17  4  0  0  0  0
 17 18  4  0  0  0  0
 18 19  4  0  0  0  0
M  END
>  <Name_Molregno>
IMIPRAMINE

>  <5-HT1A>
5.12

>  <DOPAMINE D1>
5

>  <DOPAMINE D2>
6.17

>  <DOPAMINE D3>
6.41

>  <Dopamine transporter>
5.04

>  <HISTAMINE H1>
7.62

>  <Muscarinic acetylcholine receptor M1>
7.38

>  <Muscarinic acetylcholine receptor M2>
8.48

>  <Muscarinic acetylcholine receptor M3>
7.22

>  <Muscarinic acetylcholine receptor M4>
6.95

>  <Muscarinic acetylcholine receptor M5>
7.08

>  <Norepinephrine transporter>
7.18

>  <Serotonin transporter>
8.6

$$$$
IPRINDOLE
  Marvin  02231216192D 0   1.00000     0.00000     0

 21 23  0  0  0  0  0  0  0  0999 V2000
   -0.0085    0.7429    0.0000 N   0  0  0  0  0  0  0  0  0
   -0.0947   -0.0776    0.0000 C   0  0  0  0  0  0  0  0  0
    0.5972   -0.5269    0.0000 C   0  0  0  0  0  0  0  0  0
    0.7687   -1.3339    0.0000 C   0  0  0  0  0  0  0  0  0
    0.3194   -2.0258    0.0000 C   0  0  0  0  0  0  0  0  0
   -0.4876   -2.1973    0.0000 C   0  0  0  0  0  0  0  0  0
   -1.1795   -1.7480    0.0000 C   0  0  0  0  0  0  0  0  0
   -1.3510   -0.9410    0.0000 C   0  0  0  0  0  0  0  0  0
   -0.9017   -0.2491    0.0000 C   0  0  0  0  0  0  0  0  0
   -1.3142    0.4653    0.0000 C   0  0  0  0  0  0  0  0  0
   -0.7622    1.0784    0.0000 C   0  0  0  0  0  0  0  0  0
   -1.0171    1.8630    0.0000 C   0  0  0  0  0  0  0  0  0
   -1.8241    2.0346    0.0000 C   0  0  0  0  0  0  0  0  0
   -2.3761    1.4215    0.0000 C   0  0  0  0  0  0  0  0  0
   -2.1212    0.6369    0.0000 C   0  0  0  0  0  0  0  0  0
    0.7060    1.1554    0.0000 C   0  0  0  0  0  0  0  0  0
    1.4205    0.7429    0.0000 C   0  0  0  0  0  0  0  0  0
    2.1349    1.1554    0.0000 C   0  0  0  0  0  0  0  0  0
    2.8494    0.7429    0.0000 N   0  0  0  0  0  0  0  0  0
    3.5639    1.1554    0.0000 C   0  0  0  0  0  0  0  0  0
    2.8494   -0.0821    0.0000 C   0  0  0  0  0  0  0  0  0
  1  2  4  0  0  0  0
  1 11  4  0  0  0  0
  1 16  1  0  0  0  0
  2  3  1  0  0  0  0
  2  9  4  0  0  0  0
  3  4  1  0  0  0  0
  4  5  1  0  0  0  0
  5  6  1  0  0  0  0
  6  7  1  0  0  0  0
  7  8  1  0  0  0  0
  8  9  1  0  0  0  0
  9 10  4  0  0  0  0
 10 11  4  0  0  0  0
 10 15  4  0  0  0  0
 11 12  4  0  0  0  0
 12 13  4  0  0  0  0
 13 14  4  0  0  0  0
 14 15  4  0  0  0  0
 16 17  1  0  0  0  0
 17 18  1  0  0  0  0
 18 19  1  0  0  0  0
 19 20  1  0  0  0  0
 19 21  1  0  0  0  0
M  END
>  <Name_Molregno>
IPRINDOLE

>  <Dopamine transporter>
5.19

>  <HISTAMINE H1>
6.92

>  <Norepinephrine transporter>
5.9

>  <Serotonin transporter>
5.79

$$$$
Iproniazid
  Marvin  02231216192D 0   1.00000     0.00000     0

 13 13  0  0  0  0  0  0  0  0999 V2000
    0.5337   -2.4243    0.0000 O   0  0  0  0  0  0  0  0  0
    0.5337   -1.5993    0.0000 C   0  0  0  0  0  0  0  0  0
    1.2482   -1.1868    0.0000 N   0  0  0  0  0  0  0  0  0
    1.9627   -1.5993    0.0000 N   0  0  0  0  0  0  0  0  0
    2.6771   -1.1868    0.0000 C   0  0  0  0  0  0  0  0  0
    3.3916   -1.5993    0.0000 C   0  0  0  0  0  0  0  0  0
    2.6771   -0.3618    0.0000 C   0  0  0  0  0  0  0  0  0
   -0.1808   -1.1868    0.0000 C   0  0  0  0  0  0  0  0  0
   -0.8952   -1.5993    0.0000 C   0  0  0  0  0  0  0  0  0
   -1.6097   -1.1868    0.0000 C   0  0  0  0  0  0  0  0  0
   -1.6097   -0.3618    0.0000 N   0  0  0  0  0  0  0  0  0
   -0.8952    0.0507    0.0000 C   0  0  0  0  0  0  0  0  0
   -0.1808   -0.3618    0.0000 C   0  0  0  0  0  0  0  0  0
  1  2  2  0  0  0  0
  2  3  1  0  0  0  0
  2  8  1  0  0  0  0
  3  4  1  0  0  0  0
  4  5  1  0  0  0  0
  5  6  1  0  0  0  0
  5  7  1  0  0  0  0
  8  9  4  0  0  0  0
  8 13  4  0  0  0  0
  9 10  4  0  0  0  0
 10 11  4  0  0  0  0
 11 12  4  0  0  0  0
 12 13  4  0  0  0  0
M  END
>  <Name_Molregno>
Iproniazid

>  <Dopamine transporter>
5

>  <Norepinephrine transporter>
5

>  <Serotonin transporter>
5

$$$$
Ketorolac
  Marvin  02231216192D 0   1.00000     0.00000     0

 19 21  0  0  1  0  0  0  0  0999 V2000
    1.4450    2.2138    0.0000 O   0  0  0  0  0  0  0  0  0
    2.2520    2.0422    0.0000 C   0  0  0  0  0  0  0  0  0
    2.8040    2.6553    0.0000 O   0  0  0  0  0  0  0  0  0
    2.5069    1.2576    0.0000 C   0  0  0  0  0  0  0  0  0
    2.0220    0.5902    0.0000 C   0  0  0  0  0  0  0  0  0
    2.5069   -0.0773    0.0000 C   0  0  0  0  0  0  0  0  0
    3.2915    0.1777    0.0000 N   0  0  0  0  0  0  0  0  0
    3.2915    1.0027    0.0000 C   0  0  0  0  0  0  0  0  0
    4.0761    1.2576    0.0000 C   0  0  0  0  0  0  0  0  0
    4.5611    0.5902    0.0000 C   0  0  0  0  0  0  0  0  0
    4.0761   -0.0773    0.0000 C   0  0  0  0  0  0  0  0  0
    4.3311   -0.8619    0.0000 C   0  0  0  0  0  0  0  0  0
    5.1381   -1.0334    0.0000 O   0  0  0  0  0  0  0  0  0
    3.7791   -1.4750    0.0000 C   0  0  0  0  0  0  0  0  0
    4.0340   -2.2596    0.0000 C   0  0  0  0  0  0  0  0  0
    3.4820   -2.8727    0.0000 C   0  0  0  0  0  0  0  0  0
    2.6750   -2.7012    0.0000 C   0  0  0  0  0  0  0  0  0
    2.4201   -1.9166    0.0000 C   0  0  0  0  0  0  0  0  0
    2.9721   -1.3035    0.0000 C   0  0  0  0  0  0  0  0  0
  1  2  1  0  0  0  0
  2  3  2  0  0  0  0
  2  4  1  0  0  0  0
  4  5  1  0  0  0  0
  4  8  1  0  0  0  0
  5  6  1  0  0  0  0
  6  7  1  0  0  0  0
  7  8  4  0  0  0  0
  7 11  4  0  0  0  0
  8  9  4  0  0  0  0
  9 10  4  0  0  0  0
 10 11  4  0  0  0  0
 11 12  1  0  0  0  0
 12 13  2  0  0  0  0
 12 14  1  0  0  0  0
 14 15  4  0  0  0  0
 14 19  4  0  0  0  0
 15 16  4  0  0  0  0
 16 17  4  0  0  0  0
 17 18  4  0  0  0  0
 18 19  4  0  0  0  0
M  END
>  <Name_Molregno>
Ketorolac

>  <5-HT1A>
5

>  <5-HT1B>
5

>  <5-HT1D>
5

>  <5-HT1E>
5

>  <5-HT2A>
5

>  <5-HT3>
5

>  <5-HT5>
5

>  <5-HT6>
5

>  <5-HT7>
5

>  <Alpha-1A>
5

>  <Alpha-1B>
5

>  <Alpha-2A>
5

>  <Alpha-2B>
5

>  <Alpha-2C>
5

>  <DOPAMINE D1>
5

>  <DOPAMINE D2>
5

>  <DOPAMINE D4>
5

>  <DOPAMINE D5>
5

>  <Dopamine transporter>
5

>  <HISTAMINE H1>
5

>  <HISTAMINE H2>
5

>  <Muscarinic acetylcholine receptor M2>
5

>  <Muscarinic acetylcholine receptor M5>
5

>  <Norepinephrine transporter>
5

>  <Serotonin transporter>
5

$$$$
L-cysteic-acid
  Marvin  02231216192D 0   1.00000     0.00000     0

 10  9  0  0  1  0  0  0  0  0999 V2000
   -1.9749    0.1579    0.0000 S   0  0  0  0  0  0  0  0  0
   -2.6894    0.5704    0.0000 O   0  0  0  0  0  0  0  0  0
   -2.3874   -0.5565    0.0000 O   0  0  0  0  0  0  0  0  0
   -1.5624    0.8724    0.0000 O   0  0  0  0  0  0  0  0  0
   -1.2605   -0.2546    0.0000 C   0  0  0  0  0  0  0  0  0
   -0.5460    0.1579    0.0000 C   0  0  0  0  0  0  0  0  0
   -0.5460    0.9829    0.0000 N   0  0  0  0  0  0  0  0  0
    0.1685   -0.2546    0.0000 C   0  0  0  0  0  0  0  0  0
    0.8829    0.1579    0.0000 O   0  0  0  0  0  0  0  0  0
    0.1685   -1.0796    0.0000 O   0  0  0  0  0  0  0  0  0
  1  2  2  0  0  0  0
  1  3  2  0  0  0  0
  1  4  1  0  0  0  0
  1  5  1  0  0  0  0
  5  6  1  0  0  0  0
  6  7  1  0  0  0  0
  6  8  1  0  0  0  0
  8  9  1  0  0  0  0
  8 10  2  0  0  0  0
M  END
>  <Name_Molregno>
L-cysteic-acid

>  <5-HT1A>
5

>  <5-HT1B>
5

>  <5-HT1D>
5

>  <5-HT3>
5

>  <5-HT5>
5

>  <5-HT6>
5

>  <5-HT7>
5

>  <Alpha-1A>
5

>  <Alpha-1B>
5

>  <Alpha-2A>
5

>  <Alpha-2C>
5

>  <DOPAMINE D1>
5

>  <DOPAMINE D2>
5

>  <DOPAMINE D3>
5

>  <DOPAMINE D5>
5

>  <Dopamine transporter>
5

>  <HISTAMINE H1>
5

>  <HISTAMINE H2>
5

>  <HISTAMINE H4>
5

>  <Muscarinic acetylcholine receptor M1>
5

>  <Muscarinic acetylcholine receptor M2>
5

>  <Muscarinic acetylcholine receptor M3>
5

>  <Muscarinic acetylcholine receptor M4>
5

>  <Muscarinic acetylcholine receptor M5>
5

>  <Norepinephrine transporter>
5

>  <Serotonin transporter>
5

$$$$
L-cysteine
  Marvin  02231216192D 0   1.00000     0.00000     0

  7  6  0  0  1  0  0  0  0  0999 V2000
    1.5580    2.1190    0.0000 S   0  0  0  0  0  0  0  0  0
    1.1455    1.4045    0.0000 C   0  0  0  0  0  0  0  0  0
    1.5580    0.6901    0.0000 C   0  0  0  0  0  0  0  0  0
    2.3830    0.6901    0.0000 N   0  0  0  0  0  0  0  0  0
    1.1455   -0.0244    0.0000 C   0  0  0  0  0  0  0  0  0
    1.5580   -0.7389    0.0000 O   0  0  0  0  0  0  0  0  0
    0.3205   -0.0244    0.0000 O   0  0  0  0  0  0  0  0  0
  1  2  1  0  0  0  0
  2  3  1  0  0  0  0
  3  4  1  0  0  0  0
  3  5  1  0  0  0  0
  5  6  1  0  0  0  0
  5  7  2  0  0  0  0
M  END
>  <Name_Molregno>
L-cysteine

>  <5-HT1A>
5

>  <5-HT1B>
5

>  <5-HT1D>
5

>  <5-HT3>
5

>  <5-HT5>
5

>  <5-HT6>
5

>  <5-HT7>
5

>  <Alpha-1A>
5

>  <Alpha-1B>
5

>  <Alpha-2A>
5

>  <Alpha-2B>
5

>  <Alpha-2C>
5

>  <DOPAMINE D1>
5

>  <DOPAMINE D2>
5

>  <DOPAMINE D3>
5

>  <DOPAMINE D5>
5

>  <Dopamine transporter>
5

>  <HISTAMINE H1>
5

>  <HISTAMINE H2>
5

>  <HISTAMINE H4>
5

>  <Muscarinic acetylcholine receptor M1>
5

>  <Muscarinic acetylcholine receptor M2>
5

>  <Muscarinic acetylcholine receptor M3>
5

>  <Muscarinic acetylcholine receptor M4>
5

>  <Muscarinic acetylcholine receptor M5>
5

>  <Norepinephrine transporter>
5

>  <Serotonin transporter>
5

$$$$
L-cysteine-sulfinic-acid
  Marvin  02231216192D 0   1.00000     0.00000     0

  9  8  0  0  1  0  0  0  0  0999 V2000
   -2.0945    0.5537    0.0000 S   0  0  0  0  0  0  0  0  0
   -2.8090    0.1412    0.0000 O   0  0  0  0  0  0  0  0  0
   -2.0945    1.3787    0.0000 O   0  0  0  0  0  0  0  0  0
   -1.3800    0.1412    0.0000 C   0  0  0  0  0  0  0  0  0
   -0.6656    0.5537    0.0000 C   0  0  0  0  0  0  0  0  0
   -0.6656    1.3787    0.0000 N   0  0  0  0  0  0  0  0  0
    0.0489    0.1412    0.0000 C   0  0  0  0  0  0  0  0  0
    0.7634    0.5537    0.0000 O   0  0  0  0  0  0  0  0  0
    0.0489   -0.6838    0.0000 O   0  0  0  0  0  0  0  0  0
  1  2  2  0  0  0  0
  1  3  1  0  0  0  0
  1  4  1  0  0  0  0
  4  5  1  0  0  0  0
  5  6  1  0  0  0  0
  5  7  1  0  0  0  0
  7  8  1  0  0  0  0
  7  9  2  0  0  0  0
M  END
>  <Name_Molregno>
L-cysteine-sulfinic-acid

>  <5-HT1A>
5

>  <5-HT1B>
5

>  <5-HT1D>
5

>  <5-HT3>
5

>  <5-HT5>
5

>  <5-HT6>
5

>  <5-HT7>
5

>  <Alpha-1A>
5

>  <Alpha-1B>
5

>  <Alpha-2A>
5

>  <Alpha-2B>
5

>  <Alpha-2C>
5

>  <DOPAMINE D1>
5

>  <DOPAMINE D2>
5

>  <DOPAMINE D3>
5

>  <DOPAMINE D5>
5

>  <Dopamine transporter>
5

>  <HISTAMINE H1>
5

>  <HISTAMINE H2>
5

>  <HISTAMINE H4>
5

>  <Muscarinic acetylcholine receptor M1>
5

>  <Muscarinic acetylcholine receptor M2>
5

>  <Muscarinic acetylcholine receptor M3>
5

>  <Muscarinic acetylcholine receptor M4>
5

>  <Muscarinic acetylcholine receptor M5>
5

>  <Norepinephrine transporter>
5

>  <Serotonin transporter>
5

$$$$
L-homocysteine-thiolactone
  Marvin  02231216192D 0   1.00000     0.00000     0

  7  7  0  0  1  0  0  0  0  0999 V2000
    1.4299   -0.7189    0.0000 S   0  0  0  0  0  0  0  0  0
    1.1749   -1.5035    0.0000 C   0  0  0  0  0  0  0  0  0
    0.3499   -1.5035    0.0000 C   0  0  0  0  0  0  0  0  0
    0.0950   -0.7189    0.0000 C   0  0  0  0  0  0  0  0  0
   -0.6896   -0.4639    0.0000 N   0  0  0  0  0  0  0  0  0
    0.7624   -0.2339    0.0000 C   0  0  0  0  0  0  0  0  0
    0.7624    0.5911    0.0000 O   0  0  0  0  0  0  0  0  0
  1  2  1  0  0  0  0
  1  6  1  0  0  0  0
  2  3  1  0  0  0  0
  3  4  1  0  0  0  0
  4  5  1  0  0  0  0
  4  6  1  0  0  0  0
  6  7  2  0  0  0  0
M  END
>  <Name_Molregno>
L-homocysteine-thiolactone

>  <5-HT1A>
5

>  <5-HT3>
5

>  <5-HT5>
5

>  <5-HT6>
5

>  <5-HT7>
5

>  <Alpha-1A>
5

>  <Alpha-1B>
5

>  <Alpha-2A>
5

>  <Alpha-2B>
5

>  <Alpha-2C>
5

>  <DOPAMINE D1>
5

>  <DOPAMINE D2>
5

>  <DOPAMINE D5>
5

>  <Dopamine transporter>
5

>  <HISTAMINE H1>
5

>  <HISTAMINE H2>
5

>  <HISTAMINE H4>
5

>  <Muscarinic acetylcholine receptor M1>
5

>  <Muscarinic acetylcholine receptor M2>
5

>  <Muscarinic acetylcholine receptor M3>
5

>  <Muscarinic acetylcholine receptor M4>
5

>  <Muscarinic acetylcholine receptor M5>
5

>  <Norepinephrine transporter>
5

>  <Serotonin transporter>
5

$$$$
Lobeline
  Marvin  02231216192D 0   1.00000     0.00000     0

 25 27  0  0  1  0  0  0  0  0999 V2000
    0.0300    0.1781    0.0000 O   0  0  0  0  0  0  0  0  0
    0.7445    0.5906    0.0000 C   0  0  0  0  0  0  0  0  0
    1.4589    0.1781    0.0000 C   0  0  0  0  0  0  0  0  0
    1.4589   -0.6469    0.0000 C   0  0  0  0  0  0  0  0  0
    2.1734   -1.0594    0.0000 N   0  0  0  0  0  0  0  0  0
    2.8879   -0.6469    0.0000 C   0  0  0  0  0  0  0  0  0
    2.1734   -1.8844    0.0000 C   0  0  0  0  0  0  0  0  0
    1.4589   -2.2969    0.0000 C   0  0  0  0  0  0  0  0  0
    0.7445   -1.8844    0.0000 C   0  0  0  0  0  0  0  0  0
    0.7445   -1.0594    0.0000 C   0  0  0  0  0  0  0  0  0
    2.8879   -2.2969    0.0000 C   0  0  0  0  0  0  0  0  0
    2.8879   -3.1219    0.0000 C   0  0  0  0  0  0  0  0  0
    2.1734   -3.5344    0.0000 O   0  0  0  0  0  0  0  0  0
    3.6024   -3.5344    0.0000 C   0  0  0  0  0  0  0  0  0
    4.3168   -3.1219    0.0000 C   0  0  0  0  0  0  0  0  0
    5.0313   -3.5344    0.0000 C   0  0  0  0  0  0  0  0  0
    5.0313   -4.3594    0.0000 C   0  0  0  0  0  0  0  0  0
    4.3168   -4.7719    0.0000 C   0  0  0  0  0  0  0  0  0
    3.6024   -4.3594    0.0000 C   0  0  0  0  0  0  0  0  0
    0.7445    1.4156    0.0000 C   0  0  0  0  0  0  0  0  0
    0.0300    1.8281    0.0000 C   0  0  0  0  0  0  0  0  0
    0.0300    2.6531    0.0000 C   0  0  0  0  0  0  0  0  0
    0.7445    3.0656    0.0000 C   0  0  0  0  0  0  0  0  0
    1.4589    2.6531    0.0000 C   0  0  0  0  0  0  0  0  0
    1.4589    1.8281    0.0000 C   0  0  0  0  0  0  0  0  0
  1  2  1  0  0  0  0
  2  3  1  0  0  0  0
  2 20  1  0  0  0  0
  3  4  1  0  0  0  0
  4  5  1  0  0  0  0
  4 10  1  0  0  0  0
  5  6  1  0  0  0  0
  5  7  1  0  0  0  0
  7  8  1  0  0  0  0
  7 11  1  0  0  0  0
  8  9  1  0  0  0  0
  9 10  1  0  0  0  0
 11 12  1  0  0  0  0
 12 13  2  0  0  0  0
 12 14  1  0  0  0  0
 14 15  4  0  0  0  0
 14 19  4  0  0  0  0
 15 16  4  0  0  0  0
 16 17  4  0  0  0  0
 17 18  4  0  0  0  0
 18 19  4  0  0  0  0
 20 21  4  0  0  0  0
 20 25  4  0  0  0  0
 21 22  4  0  0  0  0
 22 23  4  0  0  0  0
 23 24  4  0  0  0  0
 24 25  4  0  0  0  0
M  END
>  <Name_Molregno>
Lobeline

>  <Dopamine transporter>
5.27

>  <Norepinephrine transporter>
5.73

>  <Serotonin transporter>
5

$$$$
Lofepramine
  Marvin  02231216192D 0   1.00000     0.00000     0

 30 33  0  0  0  0  0  0  0  0999 V2000
   -0.0355   -2.8173    0.0000 Cl  0  0  0  0  0  0  0  0  0
    0.6789   -2.4048    0.0000 C   0  0  0  0  0  0  0  0  0
    0.6789   -1.5798    0.0000 C   0  0  0  0  0  0  0  0  0
    1.3934   -1.1673    0.0000 C   0  0  0  0  0  0  0  0  0
    2.1079   -1.5798    0.0000 C   0  0  0  0  0  0  0  0  0
    2.1079   -2.4048    0.0000 C   0  0  0  0  0  0  0  0  0
    1.3934   -2.8173    0.0000 C   0  0  0  0  0  0  0  0  0
    2.8224   -1.1673    0.0000 C   0  0  0  0  0  0  0  0  0
    2.8224   -0.3423    0.0000 O   0  0  0  0  0  0  0  0  0
    3.5368   -1.5798    0.0000 C   0  0  0  0  0  0  0  0  0
    4.2513   -1.1673    0.0000 N   0  0  0  0  0  0  0  0  0
    4.9658   -1.5798    0.0000 C   0  0  0  0  0  0  0  0  0
    5.6802   -1.1673    0.0000 C   0  0  0  0  0  0  0  0  0
    6.3947   -1.5798    0.0000 C   0  0  0  0  0  0  0  0  0
    7.1092   -1.1673    0.0000 N   0  0  0  0  0  0  0  0  0
    7.0475   -0.3446    0.0000 C   0  0  0  0  0  0  0  0  0
    7.6523    0.2165    0.0000 C   0  0  0  0  0  0  0  0  0
    8.4681    0.0936    0.0000 C   0  0  0  0  0  0  0  0  0
    8.8806   -0.6209    0.0000 C   0  0  0  0  0  0  0  0  0
    8.5792   -1.3889    0.0000 C   0  0  0  0  0  0  0  0  0
    7.7908   -1.6321    0.0000 C   0  0  0  0  0  0  0  0  0
    7.6072   -2.4364    0.0000 C   0  0  0  0  0  0  0  0  0
    8.2120   -2.9975    0.0000 C   0  0  0  0  0  0  0  0  0
    9.0004   -2.7543    0.0000 C   0  0  0  0  0  0  0  0  0
    9.1839   -1.9500    0.0000 C   0  0  0  0  0  0  0  0  0
    7.4687    1.0208    0.0000 C   0  0  0  0  0  0  0  0  0
    6.6804    1.2640    0.0000 C   0  0  0  0  0  0  0  0  0
    6.0756    0.7029    0.0000 C   0  0  0  0  0  0  0  0  0
    6.2592   -0.1015    0.0000 C   0  0  0  0  0  0  0  0  0
    4.2513   -0.3423    0.0000 C   0  0  0  0  0  0  0  0  0
  1  2  1  0  0  0  0
  2  3  4  0  0  0  0
  2  7  4  0  0  0  0
  3  4  4  0  0  0  0
  4  5  4  0  0  0  0
  5  6  4  0  0  0  0
  5  8  1  0  0  0  0
  6  7  4  0  0  0  0
  8  9  2  0  0  0  0
  8 10  1  0  0  0  0
 10 11  1  0  0  0  0
 11 12  1  0  0  0  0
 11 30  1  0  0  0  0
 12 13  1  0  0  0  0
 13 14  1  0  0  0  0
 14 15  1  0  0  0  0
 15 16  1  0  0  0  0
 15 21  1  0  0  0  0
 16 17  4  0  0  0  0
 16 29  4  0  0  0  0
 17 18  1  0  0  0  0
 17 26  4  0  0  0  0
 18 19  1  0  0  0  0
 19 20  1  0  0  0  0
 20 21  4  0  0  0  0
 20 25  4  0  0  0  0
 21 22  4  0  0  0  0
 22 23  4  0  0  0  0
 23 24  4  0  0  0  0
 24 25  4  0  0  0  0
 26 27  4  0  0  0  0
 27 28  4  0  0  0  0
 28 29  4  0  0  0  0
M  END
>  <Name_Molregno>
Lofepramine

>  <5-HT1A>
5.34

>  <DOPAMINE D2>
5.7

>  <Dopamine transporter>
5

>  <HISTAMINE H1>
6.44

>  <Muscarinic acetylcholine receptor M1>
7.17

>  <Muscarinic acetylcholine receptor M2>
6.48

>  <Muscarinic acetylcholine receptor M3>
6.89

>  <Muscarinic acetylcholine receptor M4>
6.47

>  <Muscarinic acetylcholine receptor M5>
6.34

>  <Norepinephrine transporter>
8.27

>  <Serotonin transporter>
7.15

$$$$
LOXAPINE
  Marvin  02231216192D 0   1.00000     0.00000     0

 23 26  0  0  0  0  0  0  0  0999 V2000
    3.9671    1.6854    0.0000 Cl  0  0  0  0  0  0  0  0  0
    3.1788    1.4422    0.0000 C   0  0  0  0  0  0  0  0  0
    2.5740    2.0033    0.0000 C   0  0  0  0  0  0  0  0  0
    1.7856    1.7602    0.0000 C   0  0  0  0  0  0  0  0  0
    1.6021    0.9558    0.0000 C   0  0  0  0  0  0  0  0  0
    0.8588    0.5979    0.0000 O   0  0  0  0  0  0  0  0  0
    0.1155    0.9558    0.0000 C   0  0  0  0  0  0  0  0  0
   -0.0681    1.7602    0.0000 C   0  0  0  0  0  0  0  0  0
    0.4463    2.4052    0.0000 N   0  0  0  0  0  0  0  0  0
    1.2713    2.4052    0.0000 C   0  0  0  0  0  0  0  0  0
    1.6292    3.1485    0.0000 N   0  0  0  0  0  0  0  0  0
    1.1645    3.8301    0.0000 C   0  0  0  0  0  0  0  0  0
    1.5224    4.5734    0.0000 C   0  0  0  0  0  0  0  0  0
    2.3451    4.6351    0.0000 N   0  0  0  0  0  0  0  0  0
    2.8099    3.9534    0.0000 C   0  0  0  0  0  0  0  0  0
    2.4519    3.2101    0.0000 C   0  0  0  0  0  0  0  0  0
    2.7031    5.3784    0.0000 C   0  0  0  0  0  0  0  0  0
   -0.8565    2.0033    0.0000 C   0  0  0  0  0  0  0  0  0
   -1.4612    1.4422    0.0000 C   0  0  0  0  0  0  0  0  0
   -1.2776    0.6379    0.0000 C   0  0  0  0  0  0  0  0  0
   -0.4893    0.3947    0.0000 C   0  0  0  0  0  0  0  0  0
    2.2068    0.3947    0.0000 C   0  0  0  0  0  0  0  0  0
    2.9952    0.6379    0.0000 C   0  0  0  0  0  0  0  0  0
  1  2  1  0  0  0  0
  2  3  4  0  0  0  0
  2 23  4  0  0  0  0
  3  4  4  0  0  0  0
  4  5  4  0  0  0  0
  4 10  1  0  0  0  0
  5  6  1  0  0  0  0
  5 22  4  0  0  0  0
  6  7  1  0  0  0  0
  7  8  4  0  0  0  0
  7 21  4  0  0  0  0
  8  9  1  0  0  0  0
  8 18  4  0  0  0  0
  9 10  2  0  0  0  0
 10 11  1  0  0  0  0
 11 12  1  0  0  0  0
 11 16  1  0  0  0  0
 12 13  1  0  0  0  0
 13 14  1  0  0  0  0
 14 15  1  0  0  0  0
 14 17  1  0  0  0  0
 15 16  1  0  0  0  0
 18 19  4  0  0  0  0
 19 20  4  0  0  0  0
 20 21  4  0  0  0  0
 22 23  4  0  0  0  0
M  END
>  <Name_Molregno>
LOXAPINE

>  <5-HT1A>
5.59

>  <5-HT1B>
6.41

>  <5-HT1D>
5.46

>  <5-HT1E>
5.85

>  <5-HT2A>
8.43

>  <5-HT2C>
7.9

>  <5-HT3>
6.72

>  <5-HT5>
6.11

>  <5-HT6>
7.46

>  <5-HT7>
7.06

>  <Alpha-1A>
7.51

>  <Alpha-1B>
7.28

>  <Alpha-2A>
6.82

>  <Alpha-2B>
6.97

>  <Alpha-2C>
7.1

>  <Beta-1>
5

>  <Beta-2>
5

>  <DOPAMINE D1>
7.27

>  <DOPAMINE D2>
7.74

>  <DOPAMINE D3>
7.64

>  <DOPAMINE D4>
8.04

>  <DOPAMINE D5>
7.12

>  <Dopamine transporter>
5

>  <HISTAMINE H1>
8.33

>  <HISTAMINE H2>
6.68

>  <HISTAMINE H4>
5.32

>  <Muscarinic acetylcholine receptor M1>
6.98

>  <Muscarinic acetylcholine receptor M2>
6.38

>  <Muscarinic acetylcholine receptor M3>
6.74

>  <Muscarinic acetylcholine receptor M4>
6.09

>  <Muscarinic acetylcholine receptor M5>
6.83

>  <Norepinephrine transporter>
5.24

>  <Serotonin transporter>
5

$$$$
MAPROTILINE
  Marvin  02231216192D 0   1.00000     0.00000     0

 21 24  0  0  0  0  0  0  0  0999 V2000
    1.1690   -3.5982    0.0000 N   0  0  0  0  0  0  0  0  0
    1.8855   -3.1892    0.0000 C   0  0  0  0  0  0  0  0  0
    1.8895   -2.3643    0.0000 C   0  0  0  0  0  0  0  0  0
    2.6060   -1.9553    0.0000 C   0  0  0  0  0  0  0  0  0
    2.6101   -1.1303    0.0000 C   0  0  0  0  0  0  0  0  0
    2.7498   -0.0917    0.0000 C   0  0  0  0  0  0  0  0  0
    2.5051    0.5142    0.0000 C   0  0  0  0  0  0  0  0  0
    2.4674   -0.3819    0.0000 C   0  0  0  0  0  0  0  0  0
    3.2060   -0.7142    0.0000 C   0  0  0  0  0  0  0  0  0
    3.3678   -1.5232    0.0000 C   0  0  0  0  0  0  0  0  0
    4.1493   -1.7876    0.0000 C   0  0  0  0  0  0  0  0  0
    4.7690   -1.2429    0.0000 C   0  0  0  0  0  0  0  0  0
    4.6072   -0.4340    0.0000 C   0  0  0  0  0  0  0  0  0
    3.8257   -0.1696    0.0000 C   0  0  0  0  0  0  0  0  0
    1.6636   -0.7338    0.0000 C   0  0  0  0  0  0  0  0  0
    1.7795   -1.5506    0.0000 C   0  0  0  0  0  0  0  0  0
    1.1301   -2.0594    0.0000 C   0  0  0  0  0  0  0  0  0
    0.3648   -1.7514    0.0000 C   0  0  0  0  0  0  0  0  0
    0.2488   -0.9346    0.0000 C   0  0  0  0  0  0  0  0  0
    0.8983   -0.4258    0.0000 C   0  0  0  0  0  0  0  0  0
    1.1649   -4.4232    0.0000 C   0  0  0  0  0  0  0  0  0
  1  2  1  0  0  0  0
  1 21  1  0  0  0  0
  2  3  1  0  0  0  0
  3  4  1  0  0  0  0
  4  5  1  0  0  0  0
  5  6  1  0  0  0  0
  5 10  1  0  0  0  0
  5 16  1  0  0  0  0
  6  7  1  0  0  0  0
  7  8  1  0  0  0  0
  8  9  1  0  0  0  0
  8 15  1  0  0  0  0
  9 10  4  0  0  0  0
  9 14  4  0  0  0  0
 10 11  4  0  0  0  0
 11 12  4  0  0  0  0
 12 13  4  0  0  0  0
 13 14  4  0  0  0  0
 15 16  4  0  0  0  0
 15 20  4  0  0  0  0
 16 17  4  0  0  0  0
 17 18  4  0  0  0  0
 18 19  4  0  0  0  0
 19 20  4  0  0  0  0
M  END
>  <Name_Molregno>
MAPROTILINE

>  <DOPAMINE D1>
6.4

>  <DOPAMINE D2>
6.18

>  <DOPAMINE D3>
6.3

>  <DOPAMINE D5>
6.37

>  <Dopamine transporter>
6

>  <HISTAMINE H1>
8.89

>  <HISTAMINE H3>
6

>  <Norepinephrine transporter>
7.95

>  <Serotonin transporter>
5.24

$$$$
MAZINDOL
  Marvin  02231216192D 0   1.00000     0.00000     0

 20 23  0  0  1  0  0  0  0  0999 V2000
    5.0271   -2.2891    0.0000 Cl  0  0  0  0  0  0  0  0  0
    4.4631   -1.6871    0.0000 C   0  0  0  0  0  0  0  0  0
    3.6596   -1.8745    0.0000 C   0  0  0  0  0  0  0  0  0
    3.0956   -1.2724    0.0000 C   0  0  0  0  0  0  0  0  0
    3.3350   -0.4829    0.0000 C   0  0  0  0  0  0  0  0  0
    4.1385   -0.2955    0.0000 C   0  0  0  0  0  0  0  0  0
    4.7025   -0.8976    0.0000 C   0  0  0  0  0  0  0  0  0
    2.7710    0.1192    0.0000 C   0  0  0  0  0  0  0  0  0
    2.2312   -0.5046    0.0000 O   0  0  0  0  0  0  0  0  0
    3.4288    0.6172    0.0000 N   0  0  0  0  0  0  0  0  0
    3.1584    1.3967    0.0000 C   0  0  0  0  0  0  0  0  0
    3.8162    1.8946    0.0000 N   0  0  0  0  0  0  0  0  0
    4.4930    1.4230    0.0000 C   0  0  0  0  0  0  0  0  0
    4.2536    0.6335    0.0000 C   0  0  0  0  0  0  0  0  0
    2.3336    1.3804    0.0000 C   0  0  0  0  0  0  0  0  0
    2.0942    0.5909    0.0000 C   0  0  0  0  0  0  0  0  0
    1.2907    0.4035    0.0000 C   0  0  0  0  0  0  0  0  0
    0.7267    1.0056    0.0000 C   0  0  0  0  0  0  0  0  0
    0.9661    1.7951    0.0000 C   0  0  0  0  0  0  0  0  0
    1.7696    1.9825    0.0000 C   0  0  0  0  0  0  0  0  0
  1  2  1  0  0  0  0
  2  3  4  0  0  0  0
  2  7  4  0  0  0  0
  3  4  4  0  0  0  0
  4  5  4  0  0  0  0
  5  6  4  0  0  0  0
  5  8  1  0  0  0  0
  6  7  4  0  0  0  0
  8  9  1  0  0  0  0
  8 10  1  0  0  0  0
  8 16  1  0  0  0  0
 10 11  1  0  0  0  0
 10 14  1  0  0  0  0
 11 12  2  0  0  0  0
 11 15  1  0  0  0  0
 12 13  1  0  0  0  0
 13 14  1  0  0  0  0
 15 16  4  0  0  0  0
 15 20  4  0  0  0  0
 16 17  4  0  0  0  0
 17 18  4  0  0  0  0
 18 19  4  0  0  0  0
 19 20  4  0  0  0  0
M  END
>  <Name_Molregno>
MAZINDOL

>  <Dopamine transporter>
7.6

>  <HISTAMINE H1>
6.22

>  <Norepinephrine transporter>
8.6

>  <Serotonin transporter>
7.3

$$$$
Meloxicam
  Marvin  02231216192D 0   1.00000     0.00000     0

 23 25  0  0  0  0  0  0  0  0999 V2000
    1.0530    2.3261    0.0000 S   0  0  0  0  0  0  0  0  0
    0.2461    2.4976    0.0000 C   0  0  0  0  0  0  0  0  0
   -0.1664    1.7831    0.0000 C   0  0  0  0  0  0  0  0  0
    0.3856    1.1700    0.0000 N   0  0  0  0  0  0  0  0  0
    1.1393    1.5056    0.0000 C   0  0  0  0  0  0  0  0  0
    1.8537    1.0931    0.0000 N   0  0  0  0  0  0  0  0  0
    1.8537    0.2681    0.0000 C   0  0  0  0  0  0  0  0  0
    1.1393   -0.1444    0.0000 O   0  0  0  0  0  0  0  0  0
    2.5682   -0.1444    0.0000 C   0  0  0  0  0  0  0  0  0
    2.5682   -0.9694    0.0000 N   0  0  0  0  0  0  0  0  0
    3.2827   -1.3819    0.0000 S   0  0  0  0  0  0  0  0  0
    2.7524   -2.0139    0.0000 O   0  0  0  0  0  0  0  0  0
    3.8130   -2.0139    0.0000 O   0  0  0  0  0  0  0  0  0
    3.9972   -0.9694    0.0000 C   0  0  0  0  0  0  0  0  0
    3.9972   -0.1444    0.0000 C   0  0  0  0  0  0  0  0  0
    4.7116    0.2681    0.0000 C   0  0  0  0  0  0  0  0  0
    5.4261   -0.1444    0.0000 C   0  0  0  0  0  0  0  0  0
    5.4261   -0.9694    0.0000 C   0  0  0  0  0  0  0  0  0
    4.7116   -1.3819    0.0000 C   0  0  0  0  0  0  0  0  0
    3.2827    0.2681    0.0000 C   0  0  0  0  0  0  0  0  0
    3.2827    1.0931    0.0000 O   0  0  0  0  0  0  0  0  0
    1.8537   -1.3819    0.0000 C   0  0  0  0  0  0  0  0  0
   -0.0895    3.2513    0.0000 C   0  0  0  0  0  0  0  0  0
  1  2  4  0  0  0  0
  1  5  4  0  0  0  0
  2  3  4  0  0  0  0
  2 23  1  0  0  0  0
  3  4  4  0  0  0  0
  4  5  4  0  0  0  0
  5  6  1  0  0  0  0
  6  7  1  0  0  0  0
  7  8  1  0  0  0  0
  7  9  2  0  0  0  0
  9 10  1  0  0  0  0
  9 20  1  0  0  0  0
 10 11  1  0  0  0  0
 10 22  1  0  0  0  0
 11 12  2  0  0  0  0
 11 13  2  0  0  0  0
 11 14  1  0  0  0  0
 14 15  4  0  0  0  0
 14 19  4  0  0  0  0
 15 16  4  0  0  0  0
 15 20  1  0  0  0  0
 16 17  4  0  0  0  0
 17 18  4  0  0  0  0
 18 19  4  0  0  0  0
 20 21  2  0  0  0  0
M  END
>  <Name_Molregno>
Meloxicam

>  <5-HT1A>
5

>  <5-HT1B>
5

>  <5-HT1D>
5

>  <5-HT1E>
5

>  <5-HT2A>
5

>  <5-HT3>
5

>  <5-HT5>
5

>  <5-HT6>
5

>  <5-HT7>
5

>  <Alpha-1A>
5

>  <Alpha-1B>
5

>  <Alpha-2A>
5

>  <Alpha-2B>
5

>  <Alpha-2C>
5

>  <DOPAMINE D1>
5

>  <DOPAMINE D2>
5

>  <DOPAMINE D4>
5

>  <DOPAMINE D5>
5

>  <Dopamine transporter>
5

>  <HISTAMINE H1>
5

>  <HISTAMINE H2>
5

>  <HISTAMINE H4>
5

>  <Muscarinic acetylcholine receptor M2>
5

>  <Muscarinic acetylcholine receptor M5>
5

>  <Norepinephrine transporter>
5

>  <Serotonin transporter>
5

$$$$
METHAMPHETAMINE
  Marvin  02231216192D 0   1.00000     0.00000     0

 11 11  0  0  1  0  0  0  0  0999 V2000
    1.4662    1.5280    0.0000 N   0  0  0  0  0  0  0  0  0
    1.4662    0.7030    0.0000 C   0  0  0  0  0  0  0  0  0
    2.1807    0.2905    0.0000 C   0  0  0  0  0  0  0  0  0
    2.1807   -0.5345    0.0000 C   0  0  0  0  0  0  0  0  0
    2.8952   -0.9470    0.0000 C   0  0  0  0  0  0  0  0  0
    2.8952   -1.7720    0.0000 C   0  0  0  0  0  0  0  0  0
    2.1807   -2.1845    0.0000 C   0  0  0  0  0  0  0  0  0
    1.4662   -1.7720    0.0000 C   0  0  0  0  0  0  0  0  0
    1.4662   -0.9470    0.0000 C   0  0  0  0  0  0  0  0  0
    0.7518    0.2905    0.0000 C   0  0  0  0  0  0  0  0  0
    0.7518    1.9405    0.0000 C   0  0  0  0  0  0  0  0  0
  1  2  1  0  0  0  0
  1 11  1  0  0  0  0
  2  3  1  0  0  0  0
  2 10  1  0  0  0  0
  3  4  1  0  0  0  0
  4  5  4  0  0  0  0
  4  9  4  0  0  0  0
  5  6  4  0  0  0  0
  6  7  4  0  0  0  0
  7  8  4  0  0  0  0
  8  9  4  0  0  0  0
M  END
>  <Name_Molregno>
METHAMPHETAMINE

>  <5-HT1A>
5

>  <Alpha-2A>
5.38

>  <Alpha-2B>
6.13

>  <Alpha-2C>
6.09

>  <DOPAMINE D1>
5

>  <DOPAMINE D2>
5

>  <Dopamine transporter>
7.61

>  <Norepinephrine transporter>
6.96

>  <Serotonin transporter>
6.13

$$$$
Methcathinone
  Marvin  02231216192D 0   1.00000     0.00000     0

 12 12  0  0  1  0  0  0  0  0999 V2000
    1.9192   -0.0549    0.0000 O   0  0  0  0  0  0  0  0  0
    1.2047   -0.4674    0.0000 C   0  0  0  0  0  0  0  0  0
    0.4903   -0.0549    0.0000 C   0  0  0  0  0  0  0  0  0
    0.4903    0.7701    0.0000 N   0  0  0  0  0  0  0  0  0
   -0.2242    1.1826    0.0000 C   0  0  0  0  0  0  0  0  0
   -0.2242   -0.4674    0.0000 C   0  0  0  0  0  0  0  0  0
    1.2047   -1.2924    0.0000 C   0  0  0  0  0  0  0  0  0
    1.9192   -1.7049    0.0000 C   0  0  0  0  0  0  0  0  0
    1.9192   -2.5299    0.0000 C   0  0  0  0  0  0  0  0  0
    1.2047   -2.9424    0.0000 C   0  0  0  0  0  0  0  0  0
    0.4903   -2.5299    0.0000 C   0  0  0  0  0  0  0  0  0
    0.4903   -1.7049    0.0000 C   0  0  0  0  0  0  0  0  0
  1  2  2  0  0  0  0
  2  3  1  0  0  0  0
  2  7  1  0  0  0  0
  3  4  1  0  0  0  0
  3  6  1  0  0  0  0
  4  5  1  0  0  0  0
  7  8  4  0  0  0  0
  7 12  4  0  0  0  0
  8  9  4  0  0  0  0
  9 10  4  0  0  0  0
 10 11  4  0  0  0  0
 11 12  4  0  0  0  0
M  END
>  <Name_Molregno>
Methcathinone

>  <5-HT1A>
5

>  <5-HT1B>
5

>  <5-HT1D>
5

>  <5-HT1E>
5

>  <5-HT3>
5

>  <5-HT5>
5

>  <5-HT6>
5

>  <5-HT7>
6

>  <Alpha-1A>
5

>  <Alpha-1B>
5

>  <Alpha-2A>
5.04

>  <Alpha-2B>
5.81

>  <Alpha-2C>
6.22

>  <Beta-1>
5

>  <Beta-2>
5

>  <DOPAMINE D1>
5

>  <DOPAMINE D2>
5

>  <DOPAMINE D4>
5

>  <DOPAMINE D5>
5

>  <Dopamine transporter>
6.41

>  <HISTAMINE H1>
5

>  <HISTAMINE H2>
5

>  <HISTAMINE H4>
5

>  <Muscarinic acetylcholine receptor M1>
5

>  <Muscarinic acetylcholine receptor M2>
5

>  <Muscarinic acetylcholine receptor M3>
5

>  <Muscarinic acetylcholine receptor M4>
5

>  <Muscarinic acetylcholine receptor M5>
5

>  <Norepinephrine transporter>
6.87

>  <Serotonin transporter>
5.38

$$$$
METHYLPHENIDATE
  Marvin  02231216192D 0   1.00000     0.00000     0

 17 18  0  0  1  0  0  0  0  0999 V2000
   -0.3749   -0.6902    0.0000 O   0  0  0  0  0  0  0  0  0
    0.3395   -0.2777    0.0000 C   0  0  0  0  0  0  0  0  0
    0.3395    0.5473    0.0000 O   0  0  0  0  0  0  0  0  0
    1.0540   -0.6902    0.0000 C   0  0  0  0  0  0  0  0  0
    1.0540   -1.5152    0.0000 C   0  0  0  0  0  0  0  0  0
    1.7685   -1.9277    0.0000 N   0  0  0  0  0  0  0  0  0
    1.7685   -2.7527    0.0000 C   0  0  0  0  0  0  0  0  0
    1.0540   -3.1652    0.0000 C   0  0  0  0  0  0  0  0  0
    0.3395   -2.7527    0.0000 C   0  0  0  0  0  0  0  0  0
    0.3395   -1.9277    0.0000 C   0  0  0  0  0  0  0  0  0
    1.7685   -0.2777    0.0000 C   0  0  0  0  0  0  0  0  0
    1.7685    0.5473    0.0000 C   0  0  0  0  0  0  0  0  0
    2.4829    0.9598    0.0000 C   0  0  0  0  0  0  0  0  0
    3.1974    0.5473    0.0000 C   0  0  0  0  0  0  0  0  0
    3.1974   -0.2777    0.0000 C   0  0  0  0  0  0  0  0  0
    2.4829   -0.6902    0.0000 C   0  0  0  0  0  0  0  0  0
   -0.3749   -1.5152    0.0000 C   0  0  0  0  0  0  0  0  0
  1  2  1  0  0  0  0
  1 17  1  0  0  0  0
  2  3  2  0  0  0  0
  2  4  1  0  0  0  0
  4  5  1  0  0  0  0
  4 11  1  0  0  0  0
  5  6  1  0  0  0  0
  5 10  1  0  0  0  0
  6  7  1  0  0  0  0
  7  8  1  0  0  0  0
  8  9  1  0  0  0  0
  9 10  1  0  0  0  0
 11 12  4  0  0  0  0
 11 16  4  0  0  0  0
 12 13  4  0  0  0  0
 13 14  4  0  0  0  0
 14 15  4  0  0  0  0
 15 16  4  0  0  0  0
M  END
>  <Name_Molregno>
METHYLPHENIDATE

>  <5-HT1A>
5

>  <5-HT1B>
5

>  <5-HT1E>
5

>  <5-HT3>
5

>  <5-HT5>
5

>  <5-HT6>
5

>  <5-HT7>
5

>  <Alpha-1A>
5

>  <Alpha-1B>
5

>  <Alpha-2A>
5.25

>  <Alpha-2B>
5.61

>  <Alpha-2C>
6.07

>  <DOPAMINE D1>
5

>  <DOPAMINE D2>
5

>  <Dopamine transporter>
7.28

>  <Muscarinic acetylcholine receptor M1>
5

>  <Muscarinic acetylcholine receptor M2>
5

>  <Muscarinic acetylcholine receptor M3>
5

>  <Muscarinic acetylcholine receptor M4>
5

>  <Muscarinic acetylcholine receptor M5>
5

>  <Norepinephrine transporter>
6.46

>  <Serotonin transporter>
5

$$$$
METHYSERGIDE
  Marvin  02231216192D 0   1.00000     0.00000     0

 26 29  0  0  1  0  0  0  0  0999 V2000
   -5.6466   -4.8655    0.0000 O   0  0  0  0  0  0  0  0  0
   -5.6457   -4.0405    0.0000 C   0  0  0  0  0  0  0  0  0
   -4.9307   -3.6289    0.0000 C   0  0  0  0  0  0  0  0  0
   -4.9297   -2.8039    0.0000 N   0  0  0  0  0  0  0  0  0
   -4.2147   -2.3922    0.0000 C   0  0  0  0  0  0  0  0  0
   -3.5008   -2.8056    0.0000 O   0  0  0  0  0  0  0  0  0
   -4.2138   -1.5672    0.0000 C   0  0  0  0  0  0  0  0  0
   -3.4988   -1.1556    0.0000 C   0  0  0  0  0  0  0  0  0
   -3.4978   -0.3306    0.0000 C   0  0  0  0  0  0  0  0  0
   -4.2118    0.0828    0.0000 C   0  0  0  0  0  0  0  0  0
   -4.9267   -0.3289    0.0000 N   0  0  0  0  0  0  0  0  0
   -4.9277   -1.1539    0.0000 C   0  0  0  0  0  0  0  0  0
   -5.6407    0.0845    0.0000 C   0  0  0  0  0  0  0  0  0
   -4.2103    0.9069    0.0000 C   0  0  0  0  0  0  0  0  0
   -3.4978    1.3194    0.0000 C   0  0  0  0  0  0  0  0  0
   -2.7853    0.9069    0.0000 C   0  0  0  0  0  0  0  0  0
   -2.7853    0.0819    0.0000 C   0  0  0  0  0  0  0  0  0
   -2.0674   -0.3306    0.0000 C   0  0  0  0  0  0  0  0  0
   -1.3549    0.0819    0.0000 C   0  0  0  0  0  0  0  0  0
   -1.3549    0.9069    0.0000 C   0  0  0  0  0  0  0  0  0
   -2.0674    1.3194    0.0000 C   0  0  0  0  0  0  0  0  0
   -2.3728    2.1766    0.0000 N   0  0  0  0  0  0  0  0  0
   -3.1978    2.1766    0.0000 C   0  0  0  0  0  0  0  0  0
   -1.8973    2.8507    0.0000 C   0  0  0  0  0  0  0  0  0
   -4.2167   -4.0422    0.0000 C   0  0  0  0  0  0  0  0  0
   -4.2177   -4.8672    0.0000 C   0  0  0  0  0  0  0  0  0
  1  2  1  0  0  0  0
  2  3  1  0  0  0  0
  3  4  1  0  0  0  0
  3 25  1  0  0  0  0
  4  5  1  0  0  0  0
  5  6  2  0  0  0  0
  5  7  1  0  0  0  0
  7  8  1  0  0  0  0
  7 12  1  0  0  0  0
  8  9  2  0  0  0  0
  9 10  1  0  0  0  0
  9 17  1  0  0  0  0
 10 11  1  0  0  0  0
 10 14  1  0  0  0  0
 11 12  1  0  0  0  0
 11 13  1  0  0  0  0
 14 15  1  0  0  0  0
 15 16  4  0  0  0  0
 15 23  4  0  0  0  0
 16 17  4  0  0  0  0
 16 21  4  0  0  0  0
 17 18  4  0  0  0  0
 18 19  4  0  0  0  0
 19 20  4  0  0  0  0
 20 21  4  0  0  0  0
 21 22  4  0  0  0  0
 22 23  4  0  0  0  0
 22 24  1  0  0  0  0
 25 26  1  0  0  0  0
M  END
>  <Name_Molregno>
METHYSERGIDE

>  <5-HT1A>
7.81

>  <5-HT1B>
7.91

>  <5-HT1D>
7.56

>  <5-HT1E>
6.71

>  <5-HT2A>
8.05

>  <5-HT2C>
8.69

>  <5-HT3>
5

>  <5-HT5>
5

>  <5-HT6>
6.82

>  <5-HT7>
7.32

>  <Alpha-1A>
5

>  <Alpha-1B>
5

>  <Alpha-2A>
6.77

>  <Alpha-2B>
6.97

>  <Alpha-2C>
7.05

>  <Beta-1>
5

>  <Beta-2>
5

>  <DOPAMINE D1>
5

>  <DOPAMINE D2>
5

>  <DOPAMINE D4>
5

>  <DOPAMINE D5>
5

>  <Dopamine transporter>
5

>  <HISTAMINE H1>
5.26

>  <HISTAMINE H2>
5

>  <Muscarinic acetylcholine receptor M1>
5.26

>  <Muscarinic acetylcholine receptor M2>
5.21

>  <Muscarinic acetylcholine receptor M3>
5.33

>  <Muscarinic acetylcholine receptor M4>
5

>  <Muscarinic acetylcholine receptor M5>
5

>  <Norepinephrine transporter>
5

>  <Serotonin transporter>
5

$$$$
MIANSERIN
  Marvin  02231216192D 0   1.00000     0.00000     0

 20 23  0  0  1  0  0  0  0  0999 V2000
   -0.0097    0.0139    0.0000 N   0  0  0  0  0  0  0  0  0
    0.8153    0.0139    0.0000 C   0  0  0  0  0  0  0  0  0
    1.3296   -0.6312    0.0000 C   0  0  0  0  0  0  0  0  0
    1.1460   -1.4355    0.0000 C   0  0  0  0  0  0  0  0  0
    0.4028   -1.7934    0.0000 C   0  0  0  0  0  0  0  0  0
   -0.3405   -1.4355    0.0000 C   0  0  0  0  0  0  0  0  0
   -0.5241   -0.6312    0.0000 C   0  0  0  0  0  0  0  0  0
   -1.3125   -0.3880    0.0000 C   0  0  0  0  0  0  0  0  0
   -1.9172   -0.9491    0.0000 C   0  0  0  0  0  0  0  0  0
   -1.7337   -1.7534    0.0000 C   0  0  0  0  0  0  0  0  0
   -0.9453   -1.9966    0.0000 C   0  0  0  0  0  0  0  0  0
    1.7508   -1.9966    0.0000 C   0  0  0  0  0  0  0  0  0
    2.5392   -1.7534    0.0000 C   0  0  0  0  0  0  0  0  0
    2.7227   -0.9491    0.0000 C   0  0  0  0  0  0  0  0  0
    2.1180   -0.3880    0.0000 C   0  0  0  0  0  0  0  0  0
    1.2278    0.7283    0.0000 C   0  0  0  0  0  0  0  0  0
    0.8153    1.4428    0.0000 N   0  0  0  0  0  0  0  0  0
   -0.0097    1.4428    0.0000 C   0  0  0  0  0  0  0  0  0
   -0.4222    0.7283    0.0000 C   0  0  0  0  0  0  0  0  0
    1.2278    2.1573    0.0000 C   0  0  0  0  0  0  0  0  0
  1  2  1  0  0  0  0
  1  7  1  0  0  0  0
  1 19  1  0  0  0  0
  2  3  1  0  0  0  0
  2 16  1  0  0  0  0
  3  4  4  0  0  0  0
  3 15  4  0  0  0  0
  4  5  1  0  0  0  0
  4 12  4  0  0  0  0
  5  6  1  0  0  0  0
  6  7  4  0  0  0  0
  6 11  4  0  0  0  0
  7  8  4  0  0  0  0
  8  9  4  0  0  0  0
  9 10  4  0  0  0  0
 10 11  4  0  0  0  0
 12 13  4  0  0  0  0
 13 14  4  0  0  0  0
 14 15  4  0  0  0  0
 16 17  1  0  0  0  0
 17 18  1  0  0  0  0
 17 20  1  0  0  0  0
 18 19  1  0  0  0  0
M  END
>  <Name_Molregno>
MIANSERIN

>  <5-HT1A>
6.15

>  <5-HT1D>
6.53

>  <5-HT2A>
8.13

>  <5-HT2C>
8.5

>  <5-HT6>
7.2

>  <5-HT7>
7.28

>  <Alpha-2A>
8.32

>  <Alpha-2B>
7.57

>  <Alpha-2C>
8.42

>  <DOPAMINE D1>
6.11

>  <DOPAMINE D2>
5.69

>  <DOPAMINE D3>
5.55

>  <Dopamine transporter>
5.03

>  <HISTAMINE H1>
9.13

>  <HISTAMINE H4>
6.12

>  <Norepinephrine transporter>
7.15

>  <Serotonin transporter>
5.4

$$$$
MIRTAZAPINE
  Marvin  02231216192D 0   1.00000     0.00000     0

 20 23  0  0  1  0  0  0  0  0999 V2000
   -2.9515    1.3173    0.0000 N   0  0  0  0  0  0  0  0  0
   -2.1632    1.0741    0.0000 C   0  0  0  0  0  0  0  0  0
   -1.6488    1.7191    0.0000 N   0  0  0  0  0  0  0  0  0
   -0.8238    1.7191    0.0000 C   0  0  0  0  0  0  0  0  0
   -0.3094    1.0741    0.0000 C   0  0  0  0  0  0  0  0  0
   -0.4930    0.2698    0.0000 C   0  0  0  0  0  0  0  0  0
   -1.2363   -0.0881    0.0000 C   0  0  0  0  0  0  0  0  0
   -1.9796    0.2698    0.0000 C   0  0  0  0  0  0  0  0  0
   -2.5844   -0.2913    0.0000 C   0  0  0  0  0  0  0  0  0
   -3.3727   -0.0482    0.0000 C   0  0  0  0  0  0  0  0  0
   -3.5563    0.7562    0.0000 C   0  0  0  0  0  0  0  0  0
    0.1118   -0.2913    0.0000 C   0  0  0  0  0  0  0  0  0
    0.9001   -0.0482    0.0000 C   0  0  0  0  0  0  0  0  0
    1.0837    0.7562    0.0000 C   0  0  0  0  0  0  0  0  0
    0.4789    1.3173    0.0000 C   0  0  0  0  0  0  0  0  0
   -0.4113    2.4336    0.0000 C   0  0  0  0  0  0  0  0  0
   -0.8238    3.1481    0.0000 N   0  0  0  0  0  0  0  0  0
   -1.6488    3.1481    0.0000 C   0  0  0  0  0  0  0  0  0
   -2.0613    2.4336    0.0000 C   0  0  0  0  0  0  0  0  0
   -0.4113    3.8626    0.0000 C   0  0  0  0  0  0  0  0  0
  1  2  4  0  0  0  0
  1 11  4  0  0  0  0
  2  3  1  0  0  0  0
  2  8  4  0  0  0  0
  3  4  1  0  0  0  0
  3 19  1  0  0  0  0
  4  5  1  0  0  0  0
  4 16  1  0  0  0  0
  5  6  4  0  0  0  0
  5 15  4  0  0  0  0
  6  7  1  0  0  0  0
  6 12  4  0  0  0  0
  7  8  1  0  0  0  0
  8  9  4  0  0  0  0
  9 10  4  0  0  0  0
 10 11  4  0  0  0  0
 12 13  4  0  0  0  0
 13 14  4  0  0  0  0
 14 15  4  0  0  0  0
 16 17  1  0  0  0  0
 17 18  1  0  0  0  0
 17 20  1  0  0  0  0
 18 19  1  0  0  0  0
M  END
>  <Name_Molregno>
MIRTAZAPINE

>  <5-HT1A>
7.74

>  <5-HT2A>
7.16

>  <5-HT2C>
7.41

>  <5-HT7>
6.58

>  <Alpha-2A>
7.7

>  <Alpha-2C>
7.74

>  <DOPAMINE D1>
5.38

>  <DOPAMINE D2>
5.26

>  <DOPAMINE D3>
6.06

>  <DOPAMINE D4>
7.6

>  <Dopamine transporter>
5

>  <HISTAMINE H1>
8.8

>  <Norepinephrine transporter>
5.29

>  <Serotonin transporter>
5

$$$$
MPP
  Marvin  02231216192D 0   1.00000     0.00000     0

 13 14  0  0  0  0  0  0  0  0999 V2000
   -1.7926    1.8404    0.0000 N   0  3  0  0  0  0  0  0  0
   -1.0781    1.4279    0.0000 C   0  0  0  0  0  0  0  0  0
   -1.0781    0.6029    0.0000 C   0  0  0  0  0  0  0  0  0
   -1.7926    0.1904    0.0000 C   0  0  0  0  0  0  0  0  0
   -2.5071    0.6029    0.0000 C   0  0  0  0  0  0  0  0  0
   -2.5071    1.4279    0.0000 C   0  0  0  0  0  0  0  0  0
   -1.7926   -0.6346    0.0000 C   0  0  0  0  0  0  0  0  0
   -1.0781   -1.0471    0.0000 C   0  0  0  0  0  0  0  0  0
   -1.0781   -1.8721    0.0000 C   0  0  0  0  0  0  0  0  0
   -1.7926   -2.2846    0.0000 C   0  0  0  0  0  0  0  0  0
   -2.5071   -1.8721    0.0000 C   0  0  0  0  0  0  0  0  0
   -2.5071   -1.0471    0.0000 C   0  0  0  0  0  0  0  0  0
   -1.7926    2.6654    0.0000 C   0  0  0  0  0  0  0  0  0
  1  2  4  0  0  0  0
  1  6  4  0  0  0  0
  1 13  1  0  0  0  0
  2  3  4  0  0  0  0
  3  4  4  0  0  0  0
  4  5  4  0  0  0  0
  4  7  1  0  0  0  0
  5  6  4  0  0  0  0
  7  8  4  0  0  0  0
  7 12  4  0  0  0  0
  8  9  4  0  0  0  0
  9 10  4  0  0  0  0
 10 11  4  0  0  0  0
 11 12  4  0  0  0  0
M  CHG  1   1   1
M  END
>  <Name_Molregno>
MPP

>  <Norepinephrine transporter>
6.29

$$$$
Naproxen
  Marvin  02231216192D 0   1.00000     0.00000     0

 17 18  0  0  1  0  0  0  0  0999 V2000
   -5.3383   -1.4581    0.0000 O   0  0  0  0  0  0  0  0  0
   -6.0528   -1.0456    0.0000 C   0  0  0  0  0  0  0  0  0
   -4.6238   -1.0456    0.0000 C   0  0  0  0  0  0  0  0  0
   -3.9093   -1.4581    0.0000 C   0  0  0  0  0  0  0  0  0
   -3.1949   -1.0456    0.0000 C   0  0  0  0  0  0  0  0  0
   -3.1949   -0.2206    0.0000 C   0  0  0  0  0  0  0  0  0
   -2.4804    0.1919    0.0000 C   0  0  0  0  0  0  0  0  0
   -1.7659   -0.2206    0.0000 C   0  0  0  0  0  0  0  0  0
   -1.7659   -1.0456    0.0000 C   0  0  0  0  0  0  0  0  0
   -2.4804   -1.4581    0.0000 C   0  0  0  0  0  0  0  0  0
   -1.0515    0.1919    0.0000 C   0  0  0  0  0  0  0  0  0
   -0.3370   -0.2206    0.0000 C   0  0  0  0  0  0  0  0  0
    0.3775    0.1919    0.0000 O   0  0  0  0  0  0  0  0  0
   -0.3370   -1.0456    0.0000 O   0  0  0  0  0  0  0  0  0
   -1.0515    1.0169    0.0000 C   0  0  0  0  0  0  0  0  0
   -3.9093    0.1919    0.0000 C   0  0  0  0  0  0  0  0  0
   -4.6238   -0.2206    0.0000 C   0  0  0  0  0  0  0  0  0
  1  2  1  0  0  0  0
  1  3  1  0  0  0  0
  3  4  4  0  0  0  0
  3 17  4  0  0  0  0
  4  5  4  0  0  0  0
  5  6  4  0  0  0  0
  5 10  4  0  0  0  0
  6  7  4  0  0  0  0
  6 16  4  0  0  0  0
  7  8  4  0  0  0  0
  8  9  4  0  0  0  0
  8 11  1  0  0  0  0
  9 10  4  0  0  0  0
 11 12  1  0  0  0  0
 11 15  1  0  0  0  0
 12 13  1  0  0  0  0
 12 14  2  0  0  0  0
 16 17  4  0  0  0  0
M  END
>  <Name_Molregno>
Naproxen

>  <5-HT1A>
5

>  <5-HT1B>
5

>  <5-HT1D>
5

>  <5-HT1E>
5

>  <5-HT2A>
5

>  <5-HT3>
5

>  <5-HT5>
5

>  <5-HT6>
5

>  <5-HT7>
5

>  <Alpha-1A>
5

>  <Alpha-1B>
5

>  <Alpha-2A>
5

>  <Alpha-2B>
5

>  <Alpha-2C>
5

>  <DOPAMINE D1>
5

>  <DOPAMINE D2>
5

>  <DOPAMINE D4>
5

>  <DOPAMINE D5>
5

>  <Dopamine transporter>
5

>  <HISTAMINE H1>
5

>  <HISTAMINE H2>
5

>  <HISTAMINE H4>
5

>  <Muscarinic acetylcholine receptor M2>
5

>  <Muscarinic acetylcholine receptor M5>
5

>  <Norepinephrine transporter>
5

>  <Serotonin transporter>
5

$$$$
N-DESMETHYLCLOZAPINE
  Marvin  02231216192D 0   1.00000     0.00000     0

 22 25  0  0  0  0  0  0  0  0999 V2000
   -0.3818   -1.7384    0.0000 Cl  0  0  0  0  0  0  0  0  0
    0.4065   -1.9816    0.0000 C   0  0  0  0  0  0  0  0  0
    1.0113   -1.4204    0.0000 C   0  0  0  0  0  0  0  0  0
    1.7996   -1.6636    0.0000 C   0  0  0  0  0  0  0  0  0
    2.3140   -1.0186    0.0000 N   0  0  0  0  0  0  0  0  0
    3.1390   -1.0186    0.0000 C   0  0  0  0  0  0  0  0  0
    3.4969   -0.2753    0.0000 N   0  0  0  0  0  0  0  0  0
    3.0322    0.4063    0.0000 C   0  0  0  0  0  0  0  0  0
    3.3902    1.1496    0.0000 C   0  0  0  0  0  0  0  0  0
    4.2129    1.2113    0.0000 N   0  0  0  0  0  0  0  0  0
    4.6776    0.5296    0.0000 C   0  0  0  0  0  0  0  0  0
    4.3196   -0.2137    0.0000 C   0  0  0  0  0  0  0  0  0
    3.6534   -1.6636    0.0000 C   0  0  0  0  0  0  0  0  0
    3.4698   -2.4679    0.0000 C   0  0  0  0  0  0  0  0  0
    2.7265   -2.8259    0.0000 N   0  0  0  0  0  0  0  0  0
    1.9832   -2.4679    0.0000 C   0  0  0  0  0  0  0  0  0
    1.3784   -3.0291    0.0000 C   0  0  0  0  0  0  0  0  0
    0.5901   -2.7859    0.0000 C   0  0  0  0  0  0  0  0  0
    4.0746   -3.0291    0.0000 C   0  0  0  0  0  0  0  0  0
    4.8629   -2.7859    0.0000 C   0  0  0  0  0  0  0  0  0
    5.0465   -1.9816    0.0000 C   0  0  0  0  0  0  0  0  0
    4.4417   -1.4204    0.0000 C   0  0  0  0  0  0  0  0  0
  1  2  1  0  0  0  0
  2  3  4  0  0  0  0
  2 18  4  0  0  0  0
  3  4  4  0  0  0  0
  4  5  1  0  0  0  0
  4 16  4  0  0  0  0
  5  6  1  0  0  0  0
  6  7  1  0  0  0  0
  6 13  2  0  0  0  0
  7  8  1  0  0  0  0
  7 12  1  0  0  0  0
  8  9  1  0  0  0  0
  9 10  1  0  0  0  0
 10 11  1  0  0  0  0
 11 12  1  0  0  0  0
 13 14  1  0  0  0  0
 13 22  1  0  0  0  0
 14 15  2  0  0  0  0
 14 19  1  0  0  0  0
 15 16  1  0  0  0  0
 16 17  4  0  0  0  0
 17 18  4  0  0  0  0
 19 20  2  0  0  0  0
 20 21  1  0  0  0  0
 21 22  2  0  0  0  0
M  END
>  <Name_Molregno>
N-DESMETHYLCLOZAPINE

>  <5-HT1A>
7.86

>  <5-HT1B>
6.39

>  <5-HT1D>
6.32

>  <5-HT1E>
6.41

>  <5-HT2A>
7.96

>  <5-HT3>
6.57

>  <5-HT5>
6.46

>  <5-HT6>
7.94

>  <5-HT7>
7.22

>  <Alpha-1A>
6.98

>  <Alpha-1B>
7.07

>  <Alpha-2A>
6.86

>  <Alpha-2B>
7.02

>  <Alpha-2C>
6.93

>  <Beta-1>
5.2

>  <Beta-2>
5.33

>  <DOPAMINE D1>
7.84

>  <DOPAMINE D2>
7

>  <DOPAMINE D3>
6.82

>  <DOPAMINE D4>
7.28

>  <DOPAMINE D5>
6.55

>  <Dopamine transporter>
5

>  <HISTAMINE H1>
8.47

>  <HISTAMINE H2>
6.46

>  <HISTAMINE H4>
5.99

>  <Muscarinic acetylcholine receptor M1>
7.17

>  <Muscarinic acetylcholine receptor M2>
6.38

>  <Muscarinic acetylcholine receptor M3>
7.02

>  <Muscarinic acetylcholine receptor M4>
6.77

>  <Muscarinic acetylcholine receptor M5>
7.45

>  <Norepinephrine transporter>
6.31

>  <Serotonin transporter>
6.5

$$$$
Nefazodone
  Marvin  02231216192D 0   1.00000     0.00000     0

 33 36  0  0  0  0  0  0  0  0999 V2000
   -0.9304    2.1702    0.0000 Cl  0  0  0  0  0  0  0  0  0
   -1.6449    2.5827    0.0000 C   0  0  0  0  0  0  0  0  0
   -2.3594    2.1702    0.0000 C   0  0  0  0  0  0  0  0  0
   -3.0738    2.5827    0.0000 C   0  0  0  0  0  0  0  0  0
   -3.7883    2.1702    0.0000 N   0  0  0  0  0  0  0  0  0
   -3.7883    1.3452    0.0000 C   0  0  0  0  0  0  0  0  0
   -4.5028    0.9327    0.0000 C   0  0  0  0  0  0  0  0  0
   -5.2172    1.3452    0.0000 N   0  0  0  0  0  0  0  0  0
   -5.2172    2.1702    0.0000 C   0  0  0  0  0  0  0  0  0
   -4.5028    2.5827    0.0000 C   0  0  0  0  0  0  0  0  0
   -5.9317    0.9327    0.0000 C   0  0  0  0  0  0  0  0  0
   -5.9317    0.1077    0.0000 C   0  0  0  0  0  0  0  0  0
   -6.6462   -0.3048    0.0000 C   0  0  0  0  0  0  0  0  0
   -6.6462   -1.1298    0.0000 N   0  0  0  0  0  0  0  0  0
   -5.9787   -1.6147    0.0000 N   0  0  0  0  0  0  0  0  0
   -6.2337   -2.3994    0.0000 C   0  0  0  0  0  0  0  0  0
   -7.0587   -2.3994    0.0000 N   0  0  0  0  0  0  0  0  0
   -7.5436   -3.0668    0.0000 C   0  0  0  0  0  0  0  0  0
   -8.3641   -2.9806    0.0000 C   0  0  0  0  0  0  0  0  0
   -8.8490   -3.6480    0.0000 O   0  0  0  0  0  0  0  0  0
   -9.6695   -3.5618    0.0000 C   0  0  0  0  0  0  0  0  0
  -10.1544   -4.2292    0.0000 C   0  0  0  0  0  0  0  0  0
  -10.9749   -4.1430    0.0000 C   0  0  0  0  0  0  0  0  0
  -11.3104   -3.3893    0.0000 C   0  0  0  0  0  0  0  0  0
  -10.8255   -2.7219    0.0000 C   0  0  0  0  0  0  0  0  0
  -10.0050   -2.8081    0.0000 C   0  0  0  0  0  0  0  0  0
   -7.3136   -1.6147    0.0000 C   0  0  0  0  0  0  0  0  0
   -8.0982   -1.3598    0.0000 O   0  0  0  0  0  0  0  0  0
   -5.7488   -3.0668    0.0000 C   0  0  0  0  0  0  0  0  0
   -6.0843   -3.8205    0.0000 C   0  0  0  0  0  0  0  0  0
   -3.0738    3.4077    0.0000 C   0  0  0  0  0  0  0  0  0
   -2.3594    3.8202    0.0000 C   0  0  0  0  0  0  0  0  0
   -1.6449    3.4077    0.0000 C   0  0  0  0  0  0  0  0  0
  1  2  1  0  0  0  0
  2  3  4  0  0  0  0
  2 33  4  0  0  0  0
  3  4  4  0  0  0  0
  4  5  1  0  0  0  0
  4 31  4  0  0  0  0
  5  6  1  0  0  0  0
  5 10  1  0  0  0  0
  6  7  1  0  0  0  0
  7  8  1  0  0  0  0
  8  9  1  0  0  0  0
  8 11  1  0  0  0  0
  9 10  1  0  0  0  0
 11 12  1  0  0  0  0
 12 13  1  0  0  0  0
 13 14  1  0  0  0  0
 14 15  1  0  0  0  0
 14 27  1  0  0  0  0
 15 16  2  0  0  0  0
 16 17  1  0  0  0  0
 16 29  1  0  0  0  0
 17 18  1  0  0  0  0
 17 27  1  0  0  0  0
 18 19  1  0  0  0  0
 19 20  1  0  0  0  0
 20 21  1  0  0  0  0
 21 22  4  0  0  0  0
 21 26  4  0  0  0  0
 22 23  4  0  0  0  0
 23 24  4  0  0  0  0
 24 25  4  0  0  0  0
 25 26  4  0  0  0  0
 27 28  2  0  0  0  0
 29 30  1  0  0  0  0
 31 32  4  0  0  0  0
 32 33  4  0  0  0  0
M  END
>  <Name_Molregno>
Nefazodone

>  <5-HT1A>
7.1

>  <DOPAMINE D2>
6.04

>  <Dopamine transporter>
6.44

>  <HISTAMINE H1>
5

>  <Norepinephrine transporter>
6.27

>  <Serotonin transporter>
6.43

$$$$
nimesulide
  Marvin  02231216192D 0   1.00000     0.00000     0

 21 22  0  0  0  0  0  0  0  0999 V2000
    3.1126    1.9121    0.0000 S   0  0  0  0  0  0  0  0  0
    3.8271    2.3246    0.0000 O   0  0  0  0  0  0  0  0  0
    2.7001    2.6266    0.0000 O   0  0  0  0  0  0  0  0  0
    2.3982    1.4996    0.0000 N   0  0  0  0  0  0  0  0  0
    2.3982    0.6746    0.0000 C   0  0  0  0  0  0  0  0  0
    3.1126    0.2621    0.0000 C   0  0  0  0  0  0  0  0  0
    3.1126   -0.5629    0.0000 C   0  0  0  0  0  0  0  0  0
    2.3982   -0.9754    0.0000 C   0  0  0  0  0  0  0  0  0
    2.3982   -1.8004    0.0000 N   0  3  0  0  0  0  0  0  0
    1.6837   -2.2129    0.0000 O   0  5  0  0  0  0  0  0  0
    3.1126   -2.2129    0.0000 O   0  5  0  0  0  0  0  0  0
    1.6837   -0.5629    0.0000 C   0  0  0  0  0  0  0  0  0
    1.6837    0.2621    0.0000 C   0  0  0  0  0  0  0  0  0
    0.9692    0.6746    0.0000 O   0  0  0  0  0  0  0  0  0
    0.9692    1.4996    0.0000 C   0  0  0  0  0  0  0  0  0
    0.2548    1.9121    0.0000 C   0  0  0  0  0  0  0  0  0
    0.2548    2.7371    0.0000 C   0  0  0  0  0  0  0  0  0
    0.9692    3.1496    0.0000 C   0  0  0  0  0  0  0  0  0
    1.6837    2.7371    0.0000 C   0  0  0  0  0  0  0  0  0
    1.6837    1.9121    0.0000 C   0  0  0  0  0  0  0  0  0
    3.5251    1.1976    0.0000 C   0  0  0  0  0  0  0  0  0
  1  2  2  0  0  0  0
  1  3  2  0  0  0  0
  1  4  1  0  0  0  0
  1 21  1  0  0  0  0
  4  5  1  0  0  0  0
  5  6  4  0  0  0  0
  5 13  4  0  0  0  0
  6  7  4  0  0  0  0
  7  8  4  0  0  0  0
  8  9  1  0  0  0  0
  8 12  4  0  0  0  0
  9 10  1  0  0  0  0
  9 11  1  0  0  0  0
 12 13  4  0  0  0  0
 13 14  1  0  0  0  0
 14 15  1  0  0  0  0
 15 16  4  0  0  0  0
 15 20  4  0  0  0  0
 16 17  4  0  0  0  0
 17 18  4  0  0  0  0
 18 19  4  0  0  0  0
 19 20  4  0  0  0  0
M  CHG  3   9   1  10  -1  11  -1
M  END
>  <Name_Molregno>
nimesulide

>  <5-HT1A>
5

>  <5-HT1B>
5

>  <5-HT1D>
5

>  <5-HT1E>
5

>  <5-HT2A>
5

>  <5-HT3>
5

>  <5-HT5>
5

>  <5-HT6>
5

>  <5-HT7>
5

>  <Alpha-1A>
5

>  <Alpha-1B>
5

>  <Alpha-2A>
5

>  <Alpha-2B>
5

>  <Alpha-2C>
5

>  <DOPAMINE D1>
5

>  <DOPAMINE D2>
5

>  <DOPAMINE D4>
5

>  <DOPAMINE D5>
5

>  <Dopamine transporter>
5

>  <HISTAMINE H1>
5

>  <HISTAMINE H2>
5

>  <HISTAMINE H4>
5

>  <Muscarinic acetylcholine receptor M2>
5

>  <Muscarinic acetylcholine receptor M5>
5

>  <Norepinephrine transporter>
5

>  <Serotonin transporter>
5

$$$$
Nisoxetine-Inhibitor
  Marvin  02231216192D 0   1.00000     0.00000     0

 20 21  0  0  1  0  0  0  0  0999 V2000
   -0.0147   -0.2324    0.0000 O   0  0  0  0  0  0  0  0  0
    0.6997    0.1801    0.0000 C   0  0  0  0  0  0  0  0  0
    1.4142   -0.2324    0.0000 C   0  0  0  0  0  0  0  0  0
    2.1287    0.1801    0.0000 C   0  0  0  0  0  0  0  0  0
    2.8431   -0.2324    0.0000 N   0  0  0  0  0  0  0  0  0
    2.8431   -1.0574    0.0000 C   0  0  0  0  0  0  0  0  0
    0.6997    1.0051    0.0000 C   0  0  0  0  0  0  0  0  0
   -0.0147    1.4176    0.0000 C   0  0  0  0  0  0  0  0  0
   -0.0147    2.2426    0.0000 C   0  0  0  0  0  0  0  0  0
    0.6997    2.6551    0.0000 C   0  0  0  0  0  0  0  0  0
    1.4142    2.2426    0.0000 C   0  0  0  0  0  0  0  0  0
    1.4142    1.4176    0.0000 C   0  0  0  0  0  0  0  0  0
   -0.0147   -1.0574    0.0000 C   0  0  0  0  0  0  0  0  0
    0.6997   -1.4699    0.0000 C   0  0  0  0  0  0  0  0  0
    0.6997   -2.2949    0.0000 C   0  0  0  0  0  0  0  0  0
   -0.0147   -2.7074    0.0000 C   0  0  0  0  0  0  0  0  0
   -0.7292   -2.2949    0.0000 C   0  0  0  0  0  0  0  0  0
   -0.7292   -1.4699    0.0000 C   0  0  0  0  0  0  0  0  0
   -1.4437   -1.0574    0.0000 O   0  0  0  0  0  0  0  0  0
   -2.1582   -1.4699    0.0000 C   0  0  0  0  0  0  0  0  0
  1  2  1  0  0  0  0
  1 13  1  0  0  0  0
  2  3  1  0  0  0  0
  2  7  1  0  0  0  0
  3  4  1  0  0  0  0
  4  5  1  0  0  0  0
  5  6  1  0  0  0  0
  7  8  4  0  0  0  0
  7 12  4  0  0  0  0
  8  9  4  0  0  0  0
  9 10  4  0  0  0  0
 10 11  4  0  0  0  0
 11 12  4  0  0  0  0
 13 14  4  0  0  0  0
 13 18  4  0  0  0  0
 14 15  4  0  0  0  0
 15 16  4  0  0  0  0
 16 17  4  0  0  0  0
 17 18  4  0  0  0  0
 18 19  1  0  0  0  0
 19 20  1  0  0  0  0
M  END
>  <Name_Molregno>
Nisoxetine-Inhibitor

>  <Norepinephrine transporter>
8.38

$$$$
NOMIFENSINE
  Marvin  02231216192D 0   1.00000     0.00000     0

 18 20  0  0  1  0  0  0  0  0999 V2000
    1.4401   -2.6248    0.0000 N   0  0  0  0  0  0  0  0  0
    1.4401   -1.7998    0.0000 C   0  0  0  0  0  0  0  0  0
    2.1546   -1.3873    0.0000 C   0  0  0  0  0  0  0  0  0
    2.1546   -0.5623    0.0000 C   0  0  0  0  0  0  0  0  0
    1.4401   -0.1498    0.0000 C   0  0  0  0  0  0  0  0  0
    0.7256   -0.5623    0.0000 C   0  0  0  0  0  0  0  0  0
    0.7256   -1.3873    0.0000 C   0  0  0  0  0  0  0  0  0
    2.8690   -0.1498    0.0000 C   0  0  0  0  0  0  0  0  0
    3.5835   -0.5623    0.0000 C   0  0  0  0  0  0  0  0  0
    3.5835   -1.3873    0.0000 N   0  0  0  0  0  0  0  0  0
    2.8690   -1.7998    0.0000 C   0  0  0  0  0  0  0  0  0
    4.2980   -1.7998    0.0000 C   0  0  0  0  0  0  0  0  0
    2.8690    0.6752    0.0000 C   0  0  0  0  0  0  0  0  0
    2.1546    1.0877    0.0000 C   0  0  0  0  0  0  0  0  0
    2.1546    1.9127    0.0000 C   0  0  0  0  0  0  0  0  0
    2.8690    2.3252    0.0000 C   0  0  0  0  0  0  0  0  0
    3.5835    1.9127    0.0000 C   0  0  0  0  0  0  0  0  0
    3.5835    1.0877    0.0000 C   0  0  0  0  0  0  0  0  0
  1  2  1  0  0  0  0
  2  3  4  0  0  0  0
  2  7  4  0  0  0  0
  3  4  4  0  0  0  0
  3 11  1  0  0  0  0
  4  5  4  0  0  0  0
  4  8  1  0  0  0  0
  5  6  4  0  0  0  0
  6  7  4  0  0  0  0
  8  9  1  0  0  0  0
  8 13  1  0  0  0  0
  9 10  1  0  0  0  0
 10 11  1  0  0  0  0
 10 12  1  0  0  0  0
 13 14  4  0  0  0  0
 13 18  4  0  0  0  0
 14 15  4  0  0  0  0
 15 16  4  0  0  0  0
 16 17  4  0  0  0  0
 17 18  4  0  0  0  0
M  END
>  <Name_Molregno>
NOMIFENSINE

>  <5-HT1A>
5.93

>  <DOPAMINE D1>
5

>  <DOPAMINE D2>
5

>  <Dopamine transporter>
7.31

>  <HISTAMINE H1>
5.57

>  <Norepinephrine transporter>
7.67

>  <Serotonin transporter>
5.65

$$$$
Norephedrine
  Marvin  02231216192D 0   1.00000     0.00000     0

 11 11  0  0  1  0  0  0  0  0999 V2000
    1.9974    0.2298    0.0000 O   0  0  0  0  0  0  0  0  0
    1.2829   -0.1827    0.0000 C   0  0  0  0  0  0  0  0  0
    0.5684    0.2298    0.0000 C   0  0  0  0  0  0  0  0  0
    0.5684    1.0548    0.0000 N   0  0  0  0  0  0  0  0  0
   -0.1461   -0.1827    0.0000 C   0  0  0  0  0  0  0  0  0
    1.2829   -1.0077    0.0000 C   0  0  0  0  0  0  0  0  0
    1.9974   -1.4202    0.0000 C   0  0  0  0  0  0  0  0  0
    1.9974   -2.2452    0.0000 C   0  0  0  0  0  0  0  0  0
    1.2829   -2.6577    0.0000 C   0  0  0  0  0  0  0  0  0
    0.5684   -2.2452    0.0000 C   0  0  0  0  0  0  0  0  0
    0.5684   -1.4202    0.0000 C   0  0  0  0  0  0  0  0  0
  1  2  1  0  0  0  0
  2  3  1  0  0  0  0
  2  6  1  0  0  0  0
  3  4  1  0  0  0  0
  3  5  1  0  0  0  0
  6  7  4  0  0  0  0
  6 11  4  0  0  0  0
  7  8  4  0  0  0  0
  8  9  4  0  0  0  0
  9 10  4  0  0  0  0
 10 11  4  0  0  0  0
M  END
>  <Name_Molregno>
Norephedrine

>  <5-HT1A>
5

>  <5-HT1B>
5

>  <5-HT1D>
5

>  <5-HT1E>
5

>  <5-HT3>
5

>  <5-HT5>
5

>  <5-HT6>
5

>  <5-HT7>
5.04

>  <Alpha-1A>
5

>  <Alpha-1B>
5

>  <Alpha-2A>
5.64

>  <Alpha-2B>
5.73

>  <Alpha-2C>
6.04

>  <Beta-1>
5

>  <Beta-2>
5

>  <DOPAMINE D1>
5

>  <DOPAMINE D2>
5

>  <DOPAMINE D4>
5

>  <DOPAMINE D5>
5

>  <Dopamine transporter>
5.76

>  <HISTAMINE H1>
5

>  <HISTAMINE H2>
5

>  <HISTAMINE H4>
5

>  <Muscarinic acetylcholine receptor M1>
5.04

>  <Muscarinic acetylcholine receptor M2>
5

>  <Muscarinic acetylcholine receptor M3>
5

>  <Muscarinic acetylcholine receptor M4>
5

>  <Muscarinic acetylcholine receptor M5>
5

>  <Norepinephrine transporter>
6.34

>  <Serotonin transporter>
5

$$$$
Norfenfluramine
  Marvin  02231216192D 0   1.00000     0.00000     0

 14 14  0  0  1  0  0  0  0  0999 V2000
    0.4631   -1.9707    0.0000 F   0  0  0  0  0  0  0  0  0
    1.1776   -1.5582    0.0000 C   0  0  0  0  0  0  0  0  0
    1.5901   -2.2727    0.0000 F   0  0  0  0  0  0  0  0  0
    0.7651   -0.8437    0.0000 F   0  0  0  0  0  0  0  0  0
    1.8921   -1.1457    0.0000 C   0  0  0  0  0  0  0  0  0
    1.8921   -0.3207    0.0000 C   0  0  0  0  0  0  0  0  0
    2.6065    0.0918    0.0000 C   0  0  0  0  0  0  0  0  0
    3.3210   -0.3207    0.0000 C   0  0  0  0  0  0  0  0  0
    3.3210   -1.1457    0.0000 C   0  0  0  0  0  0  0  0  0
    2.6065   -1.5582    0.0000 C   0  0  0  0  0  0  0  0  0
    2.6065    0.9168    0.0000 C   0  0  0  0  0  0  0  0  0
    3.3210    1.3293    0.0000 C   0  0  0  0  0  0  0  0  0
    3.3210    2.1543    0.0000 N   0  0  0  0  0  0  0  0  0
    4.0355    0.9168    0.0000 C   0  0  0  0  0  0  0  0  0
  1  2  1  0  0  0  0
  2  3  1  0  0  0  0
  2  4  1  0  0  0  0
  2  5  1  0  0  0  0
  5  6  4  0  0  0  0
  5 10  4  0  0  0  0
  6  7  4  0  0  0  0
  7  8  4  0  0  0  0
  7 11  1  0  0  0  0
  8  9  4  0  0  0  0
  9 10  4  0  0  0  0
 11 12  1  0  0  0  0
 12 13  1  0  0  0  0
 12 14  1  0  0  0  0
M  END
>  <Name_Molregno>
Norfenfluramine

>  <5-HT1A>
5.77

>  <5-HT1B>
5.57

>  <5-HT1D>
5.88

>  <5-HT1E>
5

>  <5-HT3>
5

>  <5-HT5>
5

>  <5-HT6>
5

>  <5-HT7>
6.44

>  <Alpha-1A>
5.11

>  <Alpha-1B>
5

>  <Alpha-2A>
5.42

>  <Alpha-2B>
5.75

>  <Alpha-2C>
6.08

>  <Beta-1>
5

>  <Beta-2>
5

>  <DOPAMINE D1>
5

>  <DOPAMINE D2>
5

>  <DOPAMINE D4>
5

>  <DOPAMINE D5>
5

>  <Dopamine transporter>
5

>  <HISTAMINE H1>
5

>  <HISTAMINE H2>
5

>  <Muscarinic acetylcholine receptor M1>
5.42

>  <Muscarinic acetylcholine receptor M2>
5.24

>  <Muscarinic acetylcholine receptor M3>
6.04

>  <Muscarinic acetylcholine receptor M4>
5.31

>  <Muscarinic acetylcholine receptor M5>
5.78

>  <Norepinephrine transporter>
5

>  <Serotonin transporter>
5

$$$$
NORTRYPTYLINE
  Marvin  02231216192D 0   1.00000     0.00000     0

 20 22  0  0  0  0  0  0  0  0999 V2000
    0.9332    1.7261    0.0000 N   0  0  0  0  0  0  0  0  0
    1.6477    1.3136    0.0000 C   0  0  0  0  0  0  0  0  0
    2.3622    1.7261    0.0000 C   0  0  0  0  0  0  0  0  0
    3.0767    1.3136    0.0000 C   0  0  0  0  0  0  0  0  0
    3.0767    0.4886    0.0000 C   0  0  0  0  0  0  0  0  0
    3.8200    0.1307    0.0000 C   0  0  0  0  0  0  0  0  0
    4.0035   -0.6736    0.0000 C   0  0  0  0  0  0  0  0  0
    3.4892   -1.3186    0.0000 C   0  0  0  0  0  0  0  0  0
    2.6642   -1.3186    0.0000 C   0  0  0  0  0  0  0  0  0
    2.1498   -0.6736    0.0000 C   0  0  0  0  0  0  0  0  0
    2.3334    0.1307    0.0000 C   0  0  0  0  0  0  0  0  0
    1.7286    0.6918    0.0000 C   0  0  0  0  0  0  0  0  0
    0.9402    0.4487    0.0000 C   0  0  0  0  0  0  0  0  0
    0.7567   -0.3557    0.0000 C   0  0  0  0  0  0  0  0  0
    1.3614   -0.9168    0.0000 C   0  0  0  0  0  0  0  0  0
    4.7919   -0.9168    0.0000 C   0  0  0  0  0  0  0  0  0
    5.3966   -0.3557    0.0000 C   0  0  0  0  0  0  0  0  0
    5.2131    0.4487    0.0000 C   0  0  0  0  0  0  0  0  0
    4.4247    0.6918    0.0000 C   0  0  0  0  0  0  0  0  0
    0.2188    1.3136    0.0000 C   0  0  0  0  0  0  0  0  0
  1  2  1  0  0  0  0
  1 20  1  0  0  0  0
  2  3  1  0  0  0  0
  3  4  1  0  0  0  0
  4  5  2  0  0  0  0
  5  6  1  0  0  0  0
  5 11  1  0  0  0  0
  6  7  4  0  0  0  0
  6 19  4  0  0  0  0
  7  8  1  0  0  0  0
  7 16  4  0  0  0  0
  8  9  1  0  0  0  0
  9 10  1  0  0  0  0
 10 11  4  0  0  0  0
 10 15  4  0  0  0  0
 11 12  4  0  0  0  0
 12 13  4  0  0  0  0
 13 14  4  0  0  0  0
 14 15  4  0  0  0  0
 16 17  4  0  0  0  0
 17 18  4  0  0  0  0
 18 19  4  0  0  0  0
M  END
>  <Name_Molregno>
NORTRYPTYLINE

>  <5-HT1A>
6.53

>  <DOPAMINE D2>
5.59

>  <Dopamine transporter>
5.72

>  <HISTAMINE H1>
8.03

>  <Muscarinic acetylcholine receptor M1>
7.4

>  <Muscarinic acetylcholine receptor M2>
6.96

>  <Muscarinic acetylcholine receptor M3>
7.3

>  <Muscarinic acetylcholine receptor M4>
7.08

>  <Muscarinic acetylcholine receptor M5>
7.01

>  <Norepinephrine transporter>
8.34

>  <Serotonin transporter>
7.27

$$$$
OLANZAPINE
  Marvin  02231216192D 0   1.00000     0.00000     0

 22 25  0  0  0  0  0  0  0  0999 V2000
   -1.5954    3.4952    0.0000 S   0  0  0  0  0  0  0  0  0
   -0.8919    3.0642    0.0000 C   0  0  0  0  0  0  0  0  0
   -0.1447    3.4138    0.0000 N   0  0  0  0  0  0  0  0  0
    0.5946    3.0476    0.0000 C   0  0  0  0  0  0  0  0  0
    0.7691    2.2413    0.0000 C   0  0  0  0  0  0  0  0  0
    0.2476    1.6020    0.0000 N   0  0  0  0  0  0  0  0  0
   -0.5774    1.6113    0.0000 C   0  0  0  0  0  0  0  0  0
   -0.9436    0.8720    0.0000 N   0  0  0  0  0  0  0  0  0
   -0.4865    0.1852    0.0000 C   0  0  0  0  0  0  0  0  0
   -0.8527   -0.5540    0.0000 C   0  0  0  0  0  0  0  0  0
   -1.6761   -0.6065    0.0000 N   0  0  0  0  0  0  0  0  0
   -2.1332    0.0803    0.0000 C   0  0  0  0  0  0  0  0  0
   -1.7669    0.8196    0.0000 C   0  0  0  0  0  0  0  0  0
   -2.0423   -1.3458    0.0000 C   0  0  0  0  0  0  0  0  0
   -1.0845    2.2620    0.0000 C   0  0  0  0  0  0  0  0  0
   -1.9069    2.1972    0.0000 C   0  0  0  0  0  0  0  0  0
   -2.2227    2.9594    0.0000 C   0  0  0  0  0  0  0  0  0
   -3.0249    3.1520    0.0000 C   0  0  0  0  0  0  0  0  0
    1.5547    1.9893    0.0000 C   0  0  0  0  0  0  0  0  0
    2.1657    2.5436    0.0000 C   0  0  0  0  0  0  0  0  0
    1.9912    3.3499    0.0000 C   0  0  0  0  0  0  0  0  0
    1.2056    3.6019    0.0000 C   0  0  0  0  0  0  0  0  0
  1  2  1  0  0  0  0
  1 17  1  0  0  0  0
  2  3  2  0  0  0  0
  2 15  1  0  0  0  0
  3  4  1  0  0  0  0
  4  5  4  0  0  0  0
  4 22  4  0  0  0  0
  5  6  1  0  0  0  0
  5 19  4  0  0  0  0
  6  7  1  0  0  0  0
  7  8  1  0  0  0  0
  7 15  2  0  0  0  0
  8  9  1  0  0  0  0
  8 13  1  0  0  0  0
  9 10  1  0  0  0  0
 10 11  1  0  0  0  0
 11 12  1  0  0  0  0
 11 14  1  0  0  0  0
 12 13  1  0  0  0  0
 15 16  1  0  0  0  0
 16 17  2  0  0  0  0
 17 18  1  0  0  0  0
 19 20  4  0  0  0  0
 20 21  4  0  0  0  0
 21 22  4  0  0  0  0
M  END
>  <Name_Molregno>
OLANZAPINE

>  <5-HT1A>
5.77

>  <5-HT1B>
6.23

>  <5-HT1D>
6.3

>  <5-HT1E>
5.66

>  <5-HT2A>
8.46

>  <5-HT2C>
7.86

>  <5-HT3>
6.69

>  <5-HT5>
5.92

>  <5-HT6>
7.97

>  <5-HT7>
6.73

>  <Alpha-1A>
6.95

>  <Alpha-1B>
6.58

>  <Alpha-2A>
6.51

>  <Alpha-2B>
6.97

>  <Alpha-2C>
7.21

>  <Beta-1>
5.15

>  <Beta-2>
5.15

>  <DOPAMINE D1>
7.3

>  <DOPAMINE D2>
7.67

>  <DOPAMINE D3>
7.53

>  <DOPAMINE D4>
7.73

>  <DOPAMINE D5>
7.09

>  <Dopamine transporter>
5

>  <HISTAMINE H1>
8.96

>  <HISTAMINE H2>
7.36

>  <HISTAMINE H4>
5

>  <Muscarinic acetylcholine receptor M1>
7.99

>  <Muscarinic acetylcholine receptor M2>
6.93

>  <Muscarinic acetylcholine receptor M3>
7.33

>  <Muscarinic acetylcholine receptor M4>
7.35

>  <Muscarinic acetylcholine receptor M5>
7.78

>  <Norepinephrine transporter>
5

>  <Serotonin transporter>
5.48

$$$$
ORG-5222
  Marvin  02231216192D 0   1.00000     0.00000     0

 20 23  0  0  1  0  0  0  0  0999 V2000
   -0.0754   -0.1702    0.0000 Cl  0  0  0  0  0  0  0  0  0
    0.7129   -0.4133    0.0000 C   0  0  0  0  0  0  0  0  0
    1.3177    0.1478    0.0000 C   0  0  0  0  0  0  0  0  0
    2.1060   -0.0954    0.0000 C   0  0  0  0  0  0  0  0  0
    2.6204    0.5496    0.0000 C   0  0  0  0  0  0  0  0  0
    3.4454    0.5496    0.0000 C   0  0  0  0  0  0  0  0  0
    3.9598   -0.0954    0.0000 C   0  0  0  0  0  0  0  0  0
    3.7762   -0.8997    0.0000 C   0  0  0  0  0  0  0  0  0
    3.0329   -1.2576    0.0000 O   0  0  0  0  0  0  0  0  0
    2.2896   -0.8997    0.0000 C   0  0  0  0  0  0  0  0  0
    1.6849   -1.4608    0.0000 C   0  0  0  0  0  0  0  0  0
    0.8965   -1.2176    0.0000 C   0  0  0  0  0  0  0  0  0
    4.3810   -1.4608    0.0000 C   0  0  0  0  0  0  0  0  0
    5.1693   -1.2176    0.0000 C   0  0  0  0  0  0  0  0  0
    5.3529   -0.4133    0.0000 C   0  0  0  0  0  0  0  0  0
    4.7482    0.1478    0.0000 C   0  0  0  0  0  0  0  0  0
    3.7004    1.3343    0.0000 C   0  0  0  0  0  0  0  0  0
    3.0329    1.8192    0.0000 N   0  0  0  0  0  0  0  0  0
    2.3655    1.3343    0.0000 C   0  0  0  0  0  0  0  0  0
    3.0329    2.6442    0.0000 C   0  0  0  0  0  0  0  0  0
  1  2  1  0  0  0  0
  2  3  4  0  0  0  0
  2 12  4  0  0  0  0
  3  4  4  0  0  0  0
  4  5  1  0  0  0  0
  4 10  4  0  0  0  0
  5  6  1  0  0  0  0
  5 19  1  0  0  0  0
  6  7  1  0  0  0  0
  6 17  1  0  0  0  0
  7  8  4  0  0  0  0
  7 16  4  0  0  0  0
  8  9  1  0  0  0  0
  8 13  4  0  0  0  0
  9 10  1  0  0  0  0
 10 11  4  0  0  0  0
 11 12  4  0  0  0  0
 13 14  4  0  0  0  0
 14 15  4  0  0  0  0
 15 16  4  0  0  0  0
 17 18  1  0  0  0  0
 18 19  1  0  0  0  0
 18 20  1  0  0  0  0
M  END
>  <Name_Molregno>
ORG-5222

>  <5-HT1A>
7.7

>  <5-HT1B>
8.34

>  <5-HT1D>
8.07

>  <5-HT1E>
7.69

>  <5-HT2A>
9.41

>  <5-HT2C>
9.63

>  <5-HT3>
6.35

>  <5-HT5>
8.4

>  <5-HT6>
8.85

>  <5-HT7>
9.05

>  <Alpha-1A>
8.36

>  <Alpha-1B>
8.41

>  <Alpha-2A>
8.08

>  <Alpha-2B>
8.64

>  <Alpha-2C>
7.82

>  <Beta-1>
5.3

>  <Beta-2>
5.3

>  <DOPAMINE D1>
8.54

>  <DOPAMINE D2>
8.72

>  <DOPAMINE D3>
8.74

>  <DOPAMINE D4>
8.58

>  <DOPAMINE D5>
7.64

>  <Dopamine transporter>
5.5

>  <HISTAMINE H1>
8.91

>  <HISTAMINE H2>
8.64

>  <HISTAMINE H4>
5

>  <Muscarinic acetylcholine receptor M1>
7.61

>  <Muscarinic acetylcholine receptor M2>
7.1

>  <Muscarinic acetylcholine receptor M3>
7.41

>  <Muscarinic acetylcholine receptor M4>
5

>  <Muscarinic acetylcholine receptor M5>
8.02

>  <Norepinephrine transporter>
5

>  <Serotonin transporter>
5.5

$$$$
Oxaprotiline
  Marvin  02231216192D 0   1.00000     0.00000     0

 22 25  0  0  1  0  0  0  0  0999 V2000
   -0.5303   -2.3555    0.0000 O   0  0  0  0  0  0  0  0  0
    0.2906   -2.2733    0.0000 C   0  0  0  0  0  0  0  0  0
    1.0071   -1.8644    0.0000 C   0  0  0  0  0  0  0  0  0
    1.0112   -1.0394    0.0000 C   0  0  0  0  0  0  0  0  0
    1.1509   -0.0008    0.0000 C   0  0  0  0  0  0  0  0  0
    0.9062    0.6051    0.0000 C   0  0  0  0  0  0  0  0  0
    0.8685   -0.2910    0.0000 C   0  0  0  0  0  0  0  0  0
    1.6071   -0.6233    0.0000 C   0  0  0  0  0  0  0  0  0
    1.7689   -1.4323    0.0000 C   0  0  0  0  0  0  0  0  0
    2.5504   -1.6966    0.0000 C   0  0  0  0  0  0  0  0  0
    3.1701   -1.1520    0.0000 C   0  0  0  0  0  0  0  0  0
    3.0083   -0.3430    0.0000 C   0  0  0  0  0  0  0  0  0
    2.2268   -0.0787    0.0000 C   0  0  0  0  0  0  0  0  0
    0.0647   -0.6429    0.0000 C   0  0  0  0  0  0  0  0  0
    0.1806   -1.4597    0.0000 C   0  0  0  0  0  0  0  0  0
   -0.4688   -1.9685    0.0000 C   0  0  0  0  0  0  0  0  0
   -1.2342   -1.6605    0.0000 C   0  0  0  0  0  0  0  0  0
   -1.3501   -0.8437    0.0000 C   0  0  0  0  0  0  0  0  0
   -0.7007   -0.3349    0.0000 C   0  0  0  0  0  0  0  0  0
    0.2865   -3.0983    0.0000 C   0  0  0  0  0  0  0  0  0
   -0.4300   -3.5073    0.0000 N   0  0  0  0  0  0  0  0  0
   -0.4340   -4.3323    0.0000 C   0  0  0  0  0  0  0  0  0
  1  2  1  0  0  0  0
  2  3  1  0  0  0  0
  2 20  1  0  0  0  0
  3  4  1  0  0  0  0
  4  5  1  0  0  0  0
  4  9  1  0  0  0  0
  4 15  1  0  0  0  0
  5  6  1  0  0  0  0
  6  7  1  0  0  0  0
  7  8  1  0  0  0  0
  7 14  1  0  0  0  0
  8  9  4  0  0  0  0
  8 13  4  0  0  0  0
  9 10  4  0  0  0  0
 10 11  4  0  0  0  0
 11 12  4  0  0  0  0
 12 13  4  0  0  0  0
 14 15  4  0  0  0  0
 14 19  4  0  0  0  0
 15 16  4  0  0  0  0
 16 17  4  0  0  0  0
 17 18  4  0  0  0  0
 18 19  4  0  0  0  0
 20 21  1  0  0  0  0
 21 22  1  0  0  0  0
M  END
>  <Name_Molregno>
Oxaprotiline

>  <Dopamine transporter>
5.36

>  <Norepinephrine transporter>
8.31

>  <Serotonin transporter>
5.41

$$$$
PARECOXIB
  Marvin  02231216192D 0   1.00000     0.00000     0

 26 28  0  0  0  0  0  0  0  0999 V2000
    3.2898   -1.2399    0.0000 S   0  0  0  0  0  0  0  0  0
    3.7023   -0.5254    0.0000 O   0  0  0  0  0  0  0  0  0
    2.8773   -1.9544    0.0000 O   0  0  0  0  0  0  0  0  0
    4.0042   -1.6524    0.0000 N   0  0  0  0  0  0  0  0  0
    4.7187   -1.2399    0.0000 C   0  0  0  0  0  0  0  0  0
    4.7187   -0.4149    0.0000 O   0  0  0  0  0  0  0  0  0
    5.4332   -1.6524    0.0000 C   0  0  0  0  0  0  0  0  0
    6.1476   -1.2399    0.0000 C   0  0  0  0  0  0  0  0  0
    2.5753   -0.8274    0.0000 C   0  0  0  0  0  0  0  0  0
    1.8608   -1.2399    0.0000 C   0  0  0  0  0  0  0  0  0
    1.1463   -0.8274    0.0000 C   0  0  0  0  0  0  0  0  0
    1.1463   -0.0024    0.0000 C   0  0  0  0  0  0  0  0  0
    1.8608    0.4101    0.0000 C   0  0  0  0  0  0  0  0  0
    2.5753   -0.0024    0.0000 C   0  0  0  0  0  0  0  0  0
    0.4319    0.4101    0.0000 C   0  0  0  0  0  0  0  0  0
   -0.3218    0.0745    0.0000 C   0  0  0  0  0  0  0  0  0
   -0.8738    0.6876    0.0000 N   0  0  0  0  0  0  0  0  0
   -0.4613    1.4021    0.0000 O   0  0  0  0  0  0  0  0  0
    0.3456    1.2306    0.0000 C   0  0  0  0  0  0  0  0  0
    0.9587    1.7826    0.0000 C   0  0  0  0  0  0  0  0  0
   -0.4933   -0.7324    0.0000 C   0  0  0  0  0  0  0  0  0
    0.1198   -1.2845    0.0000 C   0  0  0  0  0  0  0  0  0
   -0.0518   -2.0914    0.0000 C   0  0  0  0  0  0  0  0  0
   -0.8364   -2.3464    0.0000 C   0  0  0  0  0  0  0  0  0
   -1.4495   -1.7943    0.0000 C   0  0  0  0  0  0  0  0  0
   -1.2779   -0.9874    0.0000 C   0  0  0  0  0  0  0  0  0
  1  2  2  0  0  0  0
  1  3  2  0  0  0  0
  1  4  1  0  0  0  0
  1  9  1  0  0  0  0
  4  5  1  0  0  0  0
  5  6  2  0  0  0  0
  5  7  1  0  0  0  0
  7  8  1  0  0  0  0
  9 10  4  0  0  0  0
  9 14  4  0  0  0  0
 10 11  4  0  0  0  0
 11 12  4  0  0  0  0
 12 13  4  0  0  0  0
 12 15  1  0  0  0  0
 13 14  4  0  0  0  0
 15 16  4  0  0  0  0
 15 19  4  0  0  0  0
 16 17  4  0  0  0  0
 16 21  1  0  0  0  0
 17 18  4  0  0  0  0
 18 19  4  0  0  0  0
 19 20  1  0  0  0  0
 21 22  4  0  0  0  0
 21 26  4  0  0  0  0
 22 23  4  0  0  0  0
 23 24  4  0  0  0  0
 24 25  4  0  0  0  0
 25 26  4  0  0  0  0
M  END
>  <Name_Molregno>
PARECOXIB

>  <5-HT1A>
5

>  <5-HT1B>
5

>  <5-HT1D>
5

>  <5-HT1E>
5

>  <5-HT2A>
5

>  <5-HT3>
5

>  <5-HT6>
5

>  <5-HT7>
5

>  <Alpha-1A>
5

>  <Alpha-1B>
5

>  <Alpha-2A>
5

>  <Alpha-2B>
5

>  <Alpha-2C>
5

>  <DOPAMINE D1>
5

>  <DOPAMINE D2>
5

>  <DOPAMINE D4>
5

>  <DOPAMINE D5>
5

>  <Dopamine transporter>
5

>  <HISTAMINE H1>
5

>  <HISTAMINE H2>
5

>  <HISTAMINE H4>
5

>  <Muscarinic acetylcholine receptor M2>
5

>  <Muscarinic acetylcholine receptor M5>
5

>  <Norepinephrine transporter>
5

>  <Serotonin transporter>
5

$$$$
PAROXETINE
  Marvin  02231216192D 0   1.00000     0.00000     0

 24 27  0  0  1  0  0  0  0  0999 V2000
   -1.1156    1.2820    0.0000 F   0  0  0  0  0  0  0  0  0
   -1.1156    0.4570    0.0000 C   0  0  0  0  0  0  0  0  0
   -0.4011    0.0445    0.0000 C   0  0  0  0  0  0  0  0  0
   -0.4011   -0.7805    0.0000 C   0  0  0  0  0  0  0  0  0
   -1.1156   -1.1930    0.0000 C   0  0  0  0  0  0  0  0  0
   -1.8301   -0.7805    0.0000 C   0  0  0  0  0  0  0  0  0
   -1.8301    0.0445    0.0000 C   0  0  0  0  0  0  0  0  0
   -1.1156   -2.0180    0.0000 C   0  0  0  0  0  0  0  0  0
   -0.4011   -2.4305    0.0000 C   0  0  0  0  0  0  0  0  0
   -0.4011   -3.2555    0.0000 C   0  0  0  0  0  0  0  0  0
   -1.1156   -3.6680    0.0000 N   0  0  0  0  0  0  0  0  0
   -1.8301   -3.2555    0.0000 C   0  0  0  0  0  0  0  0  0
   -1.8301   -2.4305    0.0000 C   0  0  0  0  0  0  0  0  0
   -2.5445   -2.0180    0.0000 C   0  0  0  0  0  0  0  0  0
   -3.2590   -2.4305    0.0000 O   0  0  0  0  0  0  0  0  0
   -3.9735   -2.0180    0.0000 C   0  0  0  0  0  0  0  0  0
   -4.6880   -2.4305    0.0000 C   0  0  0  0  0  0  0  0  0
   -5.4024   -2.0180    0.0000 C   0  0  0  0  0  0  0  0  0
   -6.1870   -2.2729    0.0000 O   0  0  0  0  0  0  0  0  0
   -6.6720   -1.6055    0.0000 C   0  0  0  0  0  0  0  0  0
   -6.1870   -0.9380    0.0000 O   0  0  0  0  0  0  0  0  0
   -5.4024   -1.1930    0.0000 C   0  0  0  0  0  0  0  0  0
   -4.6880   -0.7805    0.0000 C   0  0  0  0  0  0  0  0  0
   -3.9735   -1.1930    0.0000 C   0  0  0  0  0  0  0  0  0
  1  2  1  0  0  0  0
  2  3  4  0  0  0  0
  2  7  4  0  0  0  0
  3  4  4  0  0  0  0
  4  5  4  0  0  0  0
  5  6  4  0  0  0  0
  5  8  1  0  0  0  0
  6  7  4  0  0  0  0
  8  9  1  0  0  0  0
  8 13  1  0  0  0  0
  9 10  1  0  0  0  0
 10 11  1  0  0  0  0
 11 12  1  0  0  0  0
 12 13  1  0  0  0  0
 13 14  1  0  0  0  0
 14 15  1  0  0  0  0
 15 16  1  0  0  0  0
 16 17  4  0  0  0  0
 16 24  4  0  0  0  0
 17 18  4  0  0  0  0
 18 19  1  0  0  0  0
 18 22  4  0  0  0  0
 19 20  1  0  0  0  0
 20 21  1  0  0  0  0
 21 22  1  0  0  0  0
 22 23  4  0  0  0  0
 23 24  4  0  0  0  0
M  END
>  <Name_Molregno>
PAROXETINE

>  <5-HT1A>
5

>  <5-HT2A>
5

>  <5-HT2C>
5

>  <DOPAMINE D2>
5

>  <Dopamine transporter>
6.33

>  <HISTAMINE H1>
5

>  <Muscarinic acetylcholine receptor M1>
6.83

>  <Muscarinic acetylcholine receptor M2>
6.47

>  <Muscarinic acetylcholine receptor M3>
7.1

>  <Muscarinic acetylcholine receptor M4>
6.49

>  <Muscarinic acetylcholine receptor M5>
6.19

>  <Norepinephrine transporter>
7.03

>  <Serotonin transporter>
9.7

$$$$
PBR28
  Marvin  02231216192D 0   1.00000     0.00000     0

 26 28  0  0  0  0  0  0  0  0999 V2000
    0.4191    0.0796    0.0000 O   0  0  0  0  0  0  0  0  0
    0.4191   -0.7454    0.0000 C   0  0  0  0  0  0  0  0  0
    1.1336   -1.1579    0.0000 C   0  0  0  0  0  0  0  0  0
    1.1336   -1.9829    0.0000 C   0  0  0  0  0  0  0  0  0
    0.4191   -2.3954    0.0000 C   0  0  0  0  0  0  0  0  0
   -0.2953   -1.9829    0.0000 C   0  0  0  0  0  0  0  0  0
   -0.2953   -1.1579    0.0000 C   0  0  0  0  0  0  0  0  0
   -1.0098   -0.7454    0.0000 N   0  0  0  0  0  0  0  0  0
   -1.7243   -1.1579    0.0000 C   0  0  0  0  0  0  0  0  0
   -2.4387   -0.7454    0.0000 C   0  0  0  0  0  0  0  0  0
   -2.4387    0.0796    0.0000 C   0  0  0  0  0  0  0  0  0
   -3.1532    0.4921    0.0000 C   0  0  0  0  0  0  0  0  0
   -3.8677    0.0796    0.0000 C   0  0  0  0  0  0  0  0  0
   -3.8677   -0.7454    0.0000 C   0  0  0  0  0  0  0  0  0
   -3.1532   -1.1579    0.0000 C   0  0  0  0  0  0  0  0  0
   -3.1532   -1.9829    0.0000 O   0  0  0  0  0  0  0  0  0
   -3.8677   -2.3954    0.0000 C   0  0  0  0  0  0  0  0  0
   -1.0098    0.0796    0.0000 C   0  0  0  0  0  0  0  0  0
   -1.7243    0.4921    0.0000 O   0  0  0  0  0  0  0  0  0
   -0.2953    0.4921    0.0000 C   0  0  0  0  0  0  0  0  0
    1.1336    0.4921    0.0000 C   0  0  0  0  0  0  0  0  0
    1.1336    1.3171    0.0000 C   0  0  0  0  0  0  0  0  0
    1.8481    1.7296    0.0000 C   0  0  0  0  0  0  0  0  0
    2.5626    1.3171    0.0000 C   0  0  0  0  0  0  0  0  0
    2.5626    0.4921    0.0000 C   0  0  0  0  0  0  0  0  0
    1.8481    0.0796    0.0000 C   0  0  0  0  0  0  0  0  0
  1  2  1  0  0  0  0
  1 21  1  0  0  0  0
  2  3  4  0  0  0  0
  2  7  4  0  0  0  0
  3  4  4  0  0  0  0
  4  5  4  0  0  0  0
  5  6  4  0  0  0  0
  6  7  4  0  0  0  0
  7  8  1  0  0  0  0
  8  9  1  0  0  0  0
  8 18  1  0  0  0  0
  9 10  1  0  0  0  0
 10 11  4  0  0  0  0
 10 15  4  0  0  0  0
 11 12  4  0  0  0  0
 12 13  4  0  0  0  0
 13 14  4  0  0  0  0
 14 15  4  0  0  0  0
 15 16  1  0  0  0  0
 16 17  1  0  0  0  0
 18 19  2  0  0  0  0
 18 20  1  0  0  0  0
 21 22  4  0  0  0  0
 21 26  4  0  0  0  0
 22 23  4  0  0  0  0
 23 24  4  0  0  0  0
 24 25  4  0  0  0  0
 25 26  4  0  0  0  0
M  END
>  <Name_Molregno>
PBR28

>  <5-HT1A>
5

>  <5-HT1B>
5

>  <5-HT1D>
5

>  <5-HT1E>
5

>  <5-HT2A>
5

>  <5-HT3>
5

>  <5-HT5>
5

>  <5-HT6>
5

>  <5-HT7>
5

>  <Alpha-1A>
5

>  <Alpha-1B>
5

>  <Alpha-2A>
5

>  <Alpha-2B>
5

>  <Alpha-2C>
5

>  <Beta-1>
5

>  <Beta-2>
5

>  <DOPAMINE D1>
5

>  <DOPAMINE D2>
5

>  <DOPAMINE D4>
5

>  <Dopamine transporter>
5

>  <HISTAMINE H1>
5

>  <HISTAMINE H2>
5

>  <HISTAMINE H4>
5

>  <Muscarinic acetylcholine receptor M2>
5

>  <Muscarinic acetylcholine receptor M5>
5

>  <Norepinephrine transporter>
5

>  <Serotonin transporter>
5

$$$$
Phenelzine
  Marvin  02231216192D 0   1.00000     0.00000     0

 10 10  0  0  0  0  0  0  0  0999 V2000
   -2.2750    1.4712    0.0000 N   0  0  0  0  0  0  0  0  0
   -2.9894    1.8837    0.0000 N   0  0  0  0  0  0  0  0  0
   -2.2750    0.6462    0.0000 C   0  0  0  0  0  0  0  0  0
   -1.5605    0.2337    0.0000 C   0  0  0  0  0  0  0  0  0
   -1.5605   -0.5913    0.0000 C   0  0  0  0  0  0  0  0  0
   -0.8460   -1.0038    0.0000 C   0  0  0  0  0  0  0  0  0
   -0.8460   -1.8288    0.0000 C   0  0  0  0  0  0  0  0  0
   -1.5605   -2.2413    0.0000 C   0  0  0  0  0  0  0  0  0
   -2.2750   -1.8288    0.0000 C   0  0  0  0  0  0  0  0  0
   -2.2750   -1.0038    0.0000 C   0  0  0  0  0  0  0  0  0
  1  2  1  0  0  0  0
  1  3  1  0  0  0  0
  3  4  1  0  0  0  0
  4  5  1  0  0  0  0
  5  6  4  0  0  0  0
  5 10  4  0  0  0  0
  6  7  4  0  0  0  0
  7  8  4  0  0  0  0
  8  9  4  0  0  0  0
  9 10  4  0  0  0  0
M  END
>  <Name_Molregno>
Phenelzine

>  <Dopamine transporter>
5.08

>  <Norepinephrine transporter>
5

>  <Serotonin transporter>
5

$$$$
Piribedil
  Marvin  02231216192D 0   1.00000     0.00000     0

 22 25  0  0  0  0  0  0  0  0999 V2000
   -6.9931    0.7446    0.0000 O   0  0  0  0  0  0  0  0  0
   -6.2084    0.4897    0.0000 C   0  0  0  0  0  0  0  0  0
   -5.4940    0.9022    0.0000 C   0  0  0  0  0  0  0  0  0
   -4.7795    0.4897    0.0000 C   0  0  0  0  0  0  0  0  0
   -4.7795   -0.3353    0.0000 C   0  0  0  0  0  0  0  0  0
   -5.4940   -0.7478    0.0000 C   0  0  0  0  0  0  0  0  0
   -6.2084   -0.3353    0.0000 C   0  0  0  0  0  0  0  0  0
   -6.9931   -0.5902    0.0000 O   0  0  0  0  0  0  0  0  0
   -7.4780    0.0772    0.0000 C   0  0  0  0  0  0  0  0  0
   -4.0650    0.9022    0.0000 C   0  0  0  0  0  0  0  0  0
   -3.3506    0.4897    0.0000 N   0  0  0  0  0  0  0  0  0
   -2.6361    0.9022    0.0000 C   0  0  0  0  0  0  0  0  0
   -1.9216    0.4897    0.0000 C   0  0  0  0  0  0  0  0  0
   -1.9216   -0.3353    0.0000 N   0  0  0  0  0  0  0  0  0
   -2.6361   -0.7478    0.0000 C   0  0  0  0  0  0  0  0  0
   -3.3506   -0.3353    0.0000 C   0  0  0  0  0  0  0  0  0
   -1.2071   -0.7478    0.0000 C   0  0  0  0  0  0  0  0  0
   -0.4927   -0.3353    0.0000 N   0  0  0  0  0  0  0  0  0
    0.2218   -0.7478    0.0000 C   0  0  0  0  0  0  0  0  0
    0.2218   -1.5728    0.0000 C   0  0  0  0  0  0  0  0  0
   -0.4927   -1.9853    0.0000 C   0  0  0  0  0  0  0  0  0
   -1.2071   -1.5728    0.0000 N   0  0  0  0  0  0  0  0  0
  1  2  1  0  0  0  0
  1  9  1  0  0  0  0
  2  3  4  0  0  0  0
  2  7  4  0  0  0  0
  3  4  4  0  0  0  0
  4  5  4  0  0  0  0
  4 10  1  0  0  0  0
  5  6  4  0  0  0  0
  6  7  4  0  0  0  0
  7  8  1  0  0  0  0
  8  9  1  0  0  0  0
 10 11  1  0  0  0  0
 11 12  1  0  0  0  0
 11 16  1  0  0  0  0
 12 13  1  0  0  0  0
 13 14  1  0  0  0  0
 14 15  1  0  0  0  0
 14 17  1  0  0  0  0
 15 16  1  0  0  0  0
 17 18  4  0  0  0  0
 17 22  4  0  0  0  0
 18 19  4  0  0  0  0
 19 20  4  0  0  0  0
 20 21  4  0  0  0  0
 21 22  4  0  0  0  0
M  END
>  <Name_Molregno>
Piribedil

>  <5-HT1A>
6.35

>  <5-HT1B>
5

>  <5-HT1D>
5

>  <5-HT2A>
5

>  <5-HT2C>
5

>  <Alpha-1A>
6.09

>  <Alpha-1B>
5.21

>  <Alpha-2A>
7.05

>  <Alpha-2B>
6.54

>  <Alpha-2C>
7.16

>  <Beta-1>
5

>  <Beta-2>
5

>  <DOPAMINE D1>
5

>  <DOPAMINE D2>
6.88

>  <DOPAMINE D3>
6.63

>  <DOPAMINE D4>
6.51

>  <DOPAMINE D5>
5

>  <Norepinephrine transporter>
5

$$$$
Piroxicam
  Marvin  02231216192D 0   1.00000     0.00000     0

 23 25  0  0  0  0  0  0  0  0999 V2000
    2.3267    1.3854    0.0000 S   0  0  0  0  0  0  0  0  0
    1.7964    2.0174    0.0000 O   0  0  0  0  0  0  0  0  0
    2.8570    2.0174    0.0000 O   0  0  0  0  0  0  0  0  0
    1.6123    0.9729    0.0000 N   0  0  0  0  0  0  0  0  0
    0.8978    1.3854    0.0000 C   0  0  0  0  0  0  0  0  0
    1.6123    0.1479    0.0000 C   0  0  0  0  0  0  0  0  0
    0.8978   -0.2646    0.0000 C   0  0  0  0  0  0  0  0  0
    0.1833    0.1479    0.0000 O   0  0  0  0  0  0  0  0  0
    0.8978   -1.0896    0.0000 N   0  0  0  0  0  0  0  0  0
    0.1833   -1.5021    0.0000 C   0  0  0  0  0  0  0  0  0
    0.1833   -2.3271    0.0000 N   0  0  0  0  0  0  0  0  0
   -0.5311   -2.7396    0.0000 C   0  0  0  0  0  0  0  0  0
   -1.2456   -2.3271    0.0000 C   0  0  0  0  0  0  0  0  0
   -1.2456   -1.5021    0.0000 C   0  0  0  0  0  0  0  0  0
   -0.5311   -1.0896    0.0000 C   0  0  0  0  0  0  0  0  0
    2.3267   -0.2646    0.0000 C   0  0  0  0  0  0  0  0  0
    2.3267   -1.0896    0.0000 O   0  0  0  0  0  0  0  0  0
    3.0412    0.1479    0.0000 C   0  0  0  0  0  0  0  0  0
    3.0412    0.9729    0.0000 C   0  0  0  0  0  0  0  0  0
    3.7557    1.3854    0.0000 C   0  0  0  0  0  0  0  0  0
    4.4702    0.9729    0.0000 C   0  0  0  0  0  0  0  0  0
    4.4702    0.1479    0.0000 C   0  0  0  0  0  0  0  0  0
    3.7557   -0.2646    0.0000 C   0  0  0  0  0  0  0  0  0
  1  2  2  0  0  0  0
  1  3  2  0  0  0  0
  1  4  1  0  0  0  0
  1 19  1  0  0  0  0
  4  5  1  0  0  0  0
  4  6  1  0  0  0  0
  6  7  2  0  0  0  0
  6 16  1  0  0  0  0
  7  8  1  0  0  0  0
  7  9  1  0  0  0  0
  9 10  1  0  0  0  0
 10 11  4  0  0  0  0
 10 15  4  0  0  0  0
 11 12  4  0  0  0  0
 12 13  4  0  0  0  0
 13 14  4  0  0  0  0
 14 15  4  0  0  0  0
 16 17  2  0  0  0  0
 16 18  1  0  0  0  0
 18 19  4  0  0  0  0
 18 23  4  0  0  0  0
 19 20  4  0  0  0  0
 20 21  4  0  0  0  0
 21 22  4  0  0  0  0
 22 23  4  0  0  0  0
M  END
>  <Name_Molregno>
Piroxicam

>  <5-HT1A>
5

>  <5-HT1B>
5

>  <5-HT1D>
5

>  <5-HT1E>
5

>  <5-HT2A>
5

>  <5-HT3>
5

>  <5-HT5>
5

>  <5-HT6>
5

>  <Alpha-1A>
5

>  <Alpha-1B>
5

>  <Alpha-2A>
5

>  <Alpha-2B>
5

>  <Alpha-2C>
5

>  <DOPAMINE D1>
5

>  <DOPAMINE D2>
5

>  <DOPAMINE D4>
5

>  <DOPAMINE D5>
5

>  <Dopamine transporter>
5

>  <HISTAMINE H1>
5

>  <HISTAMINE H2>
5

>  <Muscarinic acetylcholine receptor M2>
5

>  <Muscarinic acetylcholine receptor M5>
5

>  <Norepinephrine transporter>
5

>  <Serotonin transporter>
5

$$$$
Protriptyline
  Marvin  02231216192D 0   1.00000     0.00000     0

 20 22  0  0  0  0  0  0  0  0999 V2000
   -0.0715   -0.0141    0.0000 N   0  0  0  0  0  0  0  0  0
    0.6430   -0.4266    0.0000 C   0  0  0  0  0  0  0  0  0
    1.3575   -0.0141    0.0000 C   0  0  0  0  0  0  0  0  0
    2.0719   -0.4266    0.0000 C   0  0  0  0  0  0  0  0  0
    2.7864   -0.0141    0.0000 C   0  0  0  0  0  0  0  0  0
    2.7248    0.8086    0.0000 C   0  0  0  0  0  0  0  0  0
    3.3295    1.3697    0.0000 C   0  0  0  0  0  0  0  0  0
    4.1453    1.2468    0.0000 C   0  0  0  0  0  0  0  0  0
    4.5578    0.5323    0.0000 C   0  0  0  0  0  0  0  0  0
    4.2564   -0.2357    0.0000 C   0  0  0  0  0  0  0  0  0
    3.4680   -0.4788    0.0000 C   0  0  0  0  0  0  0  0  0
    3.2845   -1.2831    0.0000 C   0  0  0  0  0  0  0  0  0
    3.8892   -1.8443    0.0000 C   0  0  0  0  0  0  0  0  0
    4.6776   -1.6011    0.0000 C   0  0  0  0  0  0  0  0  0
    4.8612   -0.7968    0.0000 C   0  0  0  0  0  0  0  0  0
    3.1459    2.1741    0.0000 C   0  0  0  0  0  0  0  0  0
    2.3576    2.4172    0.0000 C   0  0  0  0  0  0  0  0  0
    1.7528    1.8561    0.0000 C   0  0  0  0  0  0  0  0  0
    1.9364    1.0518    0.0000 C   0  0  0  0  0  0  0  0  0
   -0.7860   -0.4266    0.0000 C   0  0  0  0  0  0  0  0  0
  1  2  1  0  0  0  0
  1 20  1  0  0  0  0
  2  3  1  0  0  0  0
  3  4  1  0  0  0  0
  4  5  1  0  0  0  0
  5  6  1  0  0  0  0
  5 11  1  0  0  0  0
  6  7  4  0  0  0  0
  6 19  4  0  0  0  0
  7  8  1  0  0  0  0
  7 16  4  0  0  0  0
  8  9  2  0  0  0  0
  9 10  1  0  0  0  0
 10 11  4  0  0  0  0
 10 15  4  0  0  0  0
 11 12  4  0  0  0  0
 12 13  4  0  0  0  0
 13 14  4  0  0  0  0
 14 15  4  0  0  0  0
 16 17  4  0  0  0  0
 17 18  4  0  0  0  0
 18 19  4  0  0  0  0
M  END
>  <Name_Molregno>
Protriptyline

>  <Dopamine transporter>
5.68

>  <Norepinephrine transporter>
8.85

>  <Serotonin transporter>
7.71

$$$$
PSILOCIN
  Marvin  02231216192D 0   1.00000     0.00000     0

 15 16  0  0  0  0  0  0  0  0999 V2000
    1.2794   -2.2041    0.0000 O   0  0  0  0  0  0  0  0  0
    1.2794   -1.3791    0.0000 C   0  0  0  0  0  0  0  0  0
    0.5650   -0.9666    0.0000 C   0  0  0  0  0  0  0  0  0
    0.5650   -0.1416    0.0000 C   0  0  0  0  0  0  0  0  0
   -0.2197    0.1134    0.0000 N   0  0  0  0  0  0  0  0  0
   -0.7046   -0.5541    0.0000 C   0  0  0  0  0  0  0  0  0
   -0.2197   -1.2215    0.0000 C   0  0  0  0  0  0  0  0  0
   -0.4746   -2.0061    0.0000 C   0  0  0  0  0  0  0  0  0
   -1.2816   -2.1777    0.0000 C   0  0  0  0  0  0  0  0  0
   -1.5365   -2.9623    0.0000 N   0  0  0  0  0  0  0  0  0
   -2.3435   -3.1338    0.0000 C   0  0  0  0  0  0  0  0  0
   -0.9845   -3.5754    0.0000 C   0  0  0  0  0  0  0  0  0
    1.2794    0.2709    0.0000 C   0  0  0  0  0  0  0  0  0
    1.9939   -0.1416    0.0000 C   0  0  0  0  0  0  0  0  0
    1.9939   -0.9666    0.0000 C   0  0  0  0  0  0  0  0  0
  1  2  1  0  0  0  0
  2  3  4  0  0  0  0
  2 15  4  0  0  0  0
  3  4  4  0  0  0  0
  3  7  4  0  0  0  0
  4  5  4  0  0  0  0
  4 13  4  0  0  0  0
  5  6  4  0  0  0  0
  6  7  4  0  0  0  0
  7  8  1  0  0  0  0
  8  9  1  0  0  0  0
  9 10  1  0  0  0  0
 10 11  1  0  0  0  0
 10 12  1  0  0  0  0
 13 14  4  0  0  0  0
 14 15  4  0  0  0  0
M  STY  1   1 DAT
M  SAL   1  1   5
M  SDT   1 MRV_IMPLICIT_H                                        
M  SDD   1     0.0000    0.0000    DR    ALL  0       0  
M  SED   1 IMPL_H1
M  END
>  <Name_Molregno>
PSILOCIN

>  <5-HT1A>
6.78

>  <5-HT1B>
6.66

>  <5-HT1D>
7.44

>  <5-HT1E>
7.28

>  <5-HT2A>
6.97

>  <5-HT3>
5

>  <5-HT5>
7.08

>  <5-HT6>
7.24

>  <5-HT7>
8.46

>  <Alpha-1A>
5

>  <Alpha-1B>
5

>  <Alpha-2A>
5.86

>  <Alpha-2B>
5.72

>  <Alpha-2C>
5

>  <Beta-1>
5

>  <DOPAMINE D1>
5

>  <DOPAMINE D2>
5

>  <DOPAMINE D4>
5

>  <DOPAMINE D5>
5

>  <Dopamine transporter>
5

>  <HISTAMINE H1>
6.52

>  <HISTAMINE H2>
5

>  <HISTAMINE H4>
5

>  <Muscarinic acetylcholine receptor M2>
5

>  <Muscarinic acetylcholine receptor M5>
5

>  <Norepinephrine transporter>
5

>  <Serotonin transporter>
5.42

$$$$
PSILOCYBIN
  Marvin  02231216192D 0   1.00000     0.00000     0

 19 20  0  0  0  0  0  0  0  0999 V2000
    0.6946   -2.4480    0.0000 P   0  0  0  0  0  0  0  0  0
   -0.0199   -2.0355    0.0000 O   0  0  0  0  0  0  0  0  0
   -0.0199   -1.2105    0.0000 C   0  0  0  0  0  0  0  0  0
   -0.7343   -0.7980    0.0000 C   0  0  0  0  0  0  0  0  0
   -0.7343    0.0270    0.0000 C   0  0  0  0  0  0  0  0  0
   -1.5190    0.2819    0.0000 N   0  0  0  0  0  0  0  0  0
   -2.0039   -0.3855    0.0000 C   0  0  0  0  0  0  0  0  0
   -1.5190   -1.0530    0.0000 C   0  0  0  0  0  0  0  0  0
   -1.7739   -1.8376    0.0000 C   0  0  0  0  0  0  0  0  0
   -2.5809   -2.0091    0.0000 C   0  0  0  0  0  0  0  0  0
   -2.8358   -2.7937    0.0000 N   0  0  0  0  0  0  0  0  0
   -3.6428   -2.9653    0.0000 C   0  0  0  0  0  0  0  0  0
   -2.2838   -3.4068    0.0000 C   0  0  0  0  0  0  0  0  0
   -0.0199    0.4395    0.0000 C   0  0  0  0  0  0  0  0  0
    0.6946    0.0270    0.0000 C   0  0  0  0  0  0  0  0  0
    0.6946   -0.7980    0.0000 C   0  0  0  0  0  0  0  0  0
    1.4091   -2.8605    0.0000 O   0  0  0  0  0  0  0  0  0
    0.2821   -3.1625    0.0000 O   0  0  0  0  0  0  0  0  0
    1.1071   -1.7336    0.0000 O   0  0  0  0  0  0  0  0  0
  1  2  1  0  0  0  0
  1 17  2  0  0  0  0
  1 18  1  0  0  0  0
  1 19  1  0  0  0  0
  2  3  1  0  0  0  0
  3  4  4  0  0  0  0
  3 16  4  0  0  0  0
  4  5  4  0  0  0  0
  4  8  4  0  0  0  0
  5  6  4  0  0  0  0
  5 14  4  0  0  0  0
  6  7  4  0  0  0  0
  7  8  4  0  0  0  0
  8  9  1  0  0  0  0
  9 10  1  0  0  0  0
 10 11  1  0  0  0  0
 11 12  1  0  0  0  0
 11 13  1  0  0  0  0
 14 15  4  0  0  0  0
 15 16  4  0  0  0  0
M  STY  1   1 DAT
M  SAL   1  1   6
M  SDT   1 MRV_IMPLICIT_H                                        
M  SDD   1     0.0000    0.0000    DR    ALL  0       0  
M  SED   1 IMPL_H1
M  END
>  <Name_Molregno>
PSILOCYBIN

>  <5-HT1A>
5

>  <5-HT1B>
5

>  <5-HT1D>
5.67

>  <5-HT1E>
6.71

>  <5-HT2A>
5

>  <5-HT3>
5

>  <5-HT5>
5.21

>  <5-HT6>
6.38

>  <5-HT7>
6.22

>  <Alpha-1A>
5

>  <Alpha-1B>
5

>  <Alpha-2A>
5

>  <Alpha-2B>
5

>  <Alpha-2C>
5

>  <DOPAMINE D1>
5

>  <DOPAMINE D2>
5

>  <DOPAMINE D4>
5

>  <DOPAMINE D5>
5

>  <Dopamine transporter>
5

>  <HISTAMINE H1>
5

>  <HISTAMINE H2>
5

>  <HISTAMINE H4>
5

>  <Muscarinic acetylcholine receptor M2>
5

>  <Muscarinic acetylcholine receptor M5>
5

>  <Norepinephrine transporter>
5

>  <Serotonin transporter>
5

$$$$
Quercetin
  Marvin  02231216192D 0   1.00000     0.00000     0

 22 24  0  0  0  0  0  0  0  0999 V2000
    0.2617    0.1403    0.0000 O   0  0  0  0  0  0  0  0  0
    0.9762    0.5528    0.0000 C   0  0  0  0  0  0  0  0  0
    0.9762    1.3778    0.0000 C   0  0  0  0  0  0  0  0  0
    0.2617    1.7903    0.0000 C   0  0  0  0  0  0  0  0  0
    0.2617    2.6153    0.0000 O   0  0  0  0  0  0  0  0  0
   -0.4528    1.3778    0.0000 C   0  0  0  0  0  0  0  0  0
   -1.1672    1.7903    0.0000 O   0  0  0  0  0  0  0  0  0
   -0.4528    0.5528    0.0000 C   0  0  0  0  0  0  0  0  0
   -1.1672    0.1403    0.0000 C   0  0  0  0  0  0  0  0  0
   -1.1672   -0.6847    0.0000 C   0  0  0  0  0  0  0  0  0
   -1.8817   -1.0972    0.0000 C   0  0  0  0  0  0  0  0  0
   -1.8817   -1.9222    0.0000 O   0  0  0  0  0  0  0  0  0
   -2.5962   -0.6847    0.0000 C   0  0  0  0  0  0  0  0  0
   -3.3106   -1.0972    0.0000 O   0  0  0  0  0  0  0  0  0
   -2.5962    0.1403    0.0000 C   0  0  0  0  0  0  0  0  0
   -1.8817    0.5528    0.0000 C   0  0  0  0  0  0  0  0  0
    1.6907    1.7903    0.0000 C   0  0  0  0  0  0  0  0  0
    1.6907    2.6153    0.0000 O   0  0  0  0  0  0  0  0  0
    2.4051    1.3778    0.0000 C   0  0  0  0  0  0  0  0  0
    2.4051    0.5528    0.0000 C   0  0  0  0  0  0  0  0  0
    3.1196    0.1403    0.0000 O   0  0  0  0  0  0  0  0  0
    1.6907    0.1403    0.0000 C   0  0  0  0  0  0  0  0  0
  1  2  1  0  0  0  0
  1  8  1  0  0  0  0
  2  3  4  0  0  0  0
  2 22  4  0  0  0  0
  3  4  1  0  0  0  0
  3 17  4  0  0  0  0
  4  5  2  0  0  0  0
  4  6  1  0  0  0  0
  6  7  1  0  0  0  0
  6  8  2  0  0  0  0
  8  9  1  0  0  0  0
  9 10  4  0  0  0  0
  9 16  4  0  0  0  0
 10 11  4  0  0  0  0
 11 12  1  0  0  0  0
 11 13  4  0  0  0  0
 13 14  1  0  0  0  0
 13 15  4  0  0  0  0
 15 16  4  0  0  0  0
 17 18  1  0  0  0  0
 17 19  4  0  0  0  0
 19 20  4  0  0  0  0
 20 21  1  0  0  0  0
 20 22  4  0  0  0  0
M  END
>  <Name_Molregno>
Quercetin

>  <5-HT1A>
5

>  <5-HT1D>
5

>  <5-HT3>
5

>  <5-HT5>
5

>  <5-HT6>
5

>  <5-HT7>
5

>  <Alpha-1A>
5

>  <Alpha-1B>
5

>  <Alpha-2A>
5

>  <Alpha-2B>
5

>  <Alpha-2C>
5

>  <DOPAMINE D1>
5

>  <DOPAMINE D5>
5

>  <Muscarinic acetylcholine receptor M1>
5

>  <Muscarinic acetylcholine receptor M2>
5

>  <Muscarinic acetylcholine receptor M3>
5

>  <Muscarinic acetylcholine receptor M4>
5

>  <Muscarinic acetylcholine receptor M5>
5

>  <Norepinephrine transporter>
5

>  <Serotonin transporter>
5

$$$$
Quercitrin
  Marvin  02231216192D 0   1.00000     0.00000     0

 32 35  0  0  1  0  0  0  0  0999 V2000
    1.5011    1.5398    0.0000 O   0  0  0  0  0  0  0  0  0
    1.5011    2.3648    0.0000 C   0  0  0  0  0  0  0  0  0
    2.2156    2.7773    0.0000 C   0  0  0  0  0  0  0  0  0
    0.7866    2.7773    0.0000 C   0  0  0  0  0  0  0  0  0
    0.7866    3.6023    0.0000 O   0  0  0  0  0  0  0  0  0
    0.0722    2.3648    0.0000 C   0  0  0  0  0  0  0  0  0
   -0.6423    2.7773    0.0000 O   0  0  0  0  0  0  0  0  0
    0.0722    1.5398    0.0000 C   0  0  0  0  0  0  0  0  0
   -0.6423    1.1273    0.0000 O   0  0  0  0  0  0  0  0  0
    0.7866    1.1273    0.0000 C   0  0  0  0  0  0  0  0  0
    0.7866    0.3023    0.0000 O   0  0  0  0  0  0  0  0  0
    1.5011   -0.1102    0.0000 C   0  0  0  0  0  0  0  0  0
    1.5011   -0.9352    0.0000 C   0  0  0  0  0  0  0  0  0
    2.2156   -1.3477    0.0000 O   0  0  0  0  0  0  0  0  0
    2.9300   -0.9352    0.0000 C   0  0  0  0  0  0  0  0  0
    2.9300   -0.1102    0.0000 C   0  0  0  0  0  0  0  0  0
    2.2156    0.3023    0.0000 C   0  0  0  0  0  0  0  0  0
    2.2156    1.1273    0.0000 O   0  0  0  0  0  0  0  0  0
    3.6445    0.3023    0.0000 C   0  0  0  0  0  0  0  0  0
    3.6445    1.1273    0.0000 O   0  0  0  0  0  0  0  0  0
    4.3590   -0.1102    0.0000 C   0  0  0  0  0  0  0  0  0
    4.3590   -0.9352    0.0000 C   0  0  0  0  0  0  0  0  0
    5.0734   -1.3477    0.0000 O   0  0  0  0  0  0  0  0  0
    3.6445   -1.3477    0.0000 C   0  0  0  0  0  0  0  0  0
    0.7866   -1.3477    0.0000 C   0  0  0  0  0  0  0  0  0
    0.7866   -2.1727    0.0000 C   0  0  0  0  0  0  0  0  0
    0.0722   -2.5852    0.0000 C   0  0  0  0  0  0  0  0  0
    0.0722   -3.4102    0.0000 O   0  0  0  0  0  0  0  0  0
   -0.6423   -2.1727    0.0000 C   0  0  0  0  0  0  0  0  0
   -1.3568   -2.5852    0.0000 O   0  0  0  0  0  0  0  0  0
   -0.6423   -1.3477    0.0000 C   0  0  0  0  0  0  0  0  0
    0.0722   -0.9352    0.0000 C   0  0  0  0  0  0  0  0  0
  1  2  1  0  0  0  0
  1 10  1  0  0  0  0
  2  3  1  0  0  0  0
  2  4  1  0  0  0  0
  4  5  1  0  0  0  0
  4  6  1  0  0  0  0
  6  7  1  0  0  0  0
  6  8  1  0  0  0  0
  8  9  1  0  0  0  0
  8 10  1  0  0  0  0
 10 11  1  0  0  0  0
 11 12  1  0  0  0  0
 12 13  2  0  0  0  0
 12 17  1  0  0  0  0
 13 14  1  0  0  0  0
 13 25  1  0  0  0  0
 14 15  1  0  0  0  0
 15 16  1  0  0  0  0
 15 24  2  0  0  0  0
 16 17  2  0  0  0  0
 16 19  1  0  0  0  0
 17 18  1  0  0  0  0
 19 20  1  0  0  0  0
 19 21  2  0  0  0  0
 21 22  1  0  0  0  0
 22 23  2  0  0  0  0
 22 24  1  0  0  0  0
 25 26  4  0  0  0  0
 25 32  4  0  0  0  0
 26 27  4  0  0  0  0
 27 28  1  0  0  0  0
 27 29  4  0  0  0  0
 29 30  1  0  0  0  0
 29 31  4  0  0  0  0
 31 32  4  0  0  0  0
M  END
>  <Name_Molregno>
Quercitrin

>  <5-HT1A>
5

>  <5-HT1D>
5

>  <5-HT3>
5

>  <5-HT5>
5

>  <5-HT6>
5

>  <5-HT7>
5

>  <Alpha-1A>
5

>  <Alpha-1B>
5

>  <Alpha-2A>
5

>  <Alpha-2B>
5

>  <Alpha-2C>
5

>  <DOPAMINE D1>
5

>  <DOPAMINE D5>
5

>  <Muscarinic acetylcholine receptor M1>
5

>  <Muscarinic acetylcholine receptor M2>
5

>  <Muscarinic acetylcholine receptor M3>
5

>  <Muscarinic acetylcholine receptor M4>
5

>  <Muscarinic acetylcholine receptor M5>
5

>  <Norepinephrine transporter>
5

>  <Serotonin transporter>
5

$$$$
QUETIAPINE
  Marvin  02231216192D 0   1.00000     0.00000     0

 27 30  0  0  0  0  0  0  0  0999 V2000
    0.4015    1.2563    0.0000 S   0  0  0  0  0  0  0  0  0
    1.2173    1.3793    0.0000 C   0  0  0  0  0  0  0  0  0
    1.8221    0.8181    0.0000 C   0  0  0  0  0  0  0  0  0
    2.6104    1.0613    0.0000 C   0  0  0  0  0  0  0  0  0
    2.7940    1.8656    0.0000 C   0  0  0  0  0  0  0  0  0
    2.1892    2.4268    0.0000 C   0  0  0  0  0  0  0  0  0
    1.4009    2.1836    0.0000 C   0  0  0  0  0  0  0  0  0
    1.7604   -0.0046    0.0000 C   0  0  0  0  0  0  0  0  0
    1.0788   -0.4693    0.0000 N   0  0  0  0  0  0  0  0  0
    0.2904   -0.2261    0.0000 C   0  0  0  0  0  0  0  0  0
   -0.0110    0.5418    0.0000 C   0  0  0  0  0  0  0  0  0
   -0.8268    0.6648    0.0000 C   0  0  0  0  0  0  0  0  0
   -1.3412    0.0198    0.0000 C   0  0  0  0  0  0  0  0  0
   -1.0398   -0.7482    0.0000 C   0  0  0  0  0  0  0  0  0
   -0.2240   -0.8711    0.0000 C   0  0  0  0  0  0  0  0  0
    2.4749   -0.4171    0.0000 N   0  0  0  0  0  0  0  0  0
    3.1893   -0.0046    0.0000 C   0  0  0  0  0  0  0  0  0
    3.9038   -0.4171    0.0000 C   0  0  0  0  0  0  0  0  0
    3.9038   -1.2421    0.0000 N   0  0  0  0  0  0  0  0  0
    3.1893   -1.6546    0.0000 C   0  0  0  0  0  0  0  0  0
    2.4749   -1.2421    0.0000 C   0  0  0  0  0  0  0  0  0
    4.6183   -1.6546    0.0000 C   0  0  0  0  0  0  0  0  0
    5.3328   -1.2421    0.0000 C   0  0  0  0  0  0  0  0  0
    6.0472   -1.6546    0.0000 O   0  0  0  0  0  0  0  0  0
    6.7617   -1.2421    0.0000 C   0  0  0  0  0  0  0  0  0
    7.4762   -1.6546    0.0000 C   0  0  0  0  0  0  0  0  0
    8.1906   -1.2421    0.0000 O   0  0  0  0  0  0  0  0  0
  1  2  1  0  0  0  0
  1 11  1  0  0  0  0
  2  3  4  0  0  0  0
  2  7  4  0  0  0  0
  3  4  4  0  0  0  0
  3  8  1  0  0  0  0
  4  5  4  0  0  0  0
  5  6  4  0  0  0  0
  6  7  4  0  0  0  0
  8  9  2  0  0  0  0
  8 16  1  0  0  0  0
  9 10  1  0  0  0  0
 10 11  4  0  0  0  0
 10 15  4  0  0  0  0
 11 12  4  0  0  0  0
 12 13  4  0  0  0  0
 13 14  4  0  0  0  0
 14 15  4  0  0  0  0
 16 17  1  0  0  0  0
 16 21  1  0  0  0  0
 17 18  1  0  0  0  0
 18 19  1  0  0  0  0
 19 20  1  0  0  0  0
 19 22  1  0  0  0  0
 20 21  1  0  0  0  0
 22 23  1  0  0  0  0
 23 24  1  0  0  0  0
 24 25  1  0  0  0  0
 25 26  1  0  0  0  0
 26 27  1  0  0  0  0
M  END
>  <Name_Molregno>
QUETIAPINE

>  <5-HT1A>
6.59

>  <5-HT1B>
5.83

>  <5-HT1D>
5.52

>  <5-HT1E>
5.76

>  <5-HT2A>
6.76

>  <5-HT2C>
5.82

>  <5-HT3>
5

>  <5-HT5>
5.51

>  <5-HT6>
6.35

>  <5-HT7>
6.74

>  <Alpha-1A>
7.66

>  <Alpha-1B>
7.41

>  <Alpha-2A>
5.51

>  <Alpha-2B>
6.44

>  <Alpha-2C>
7.18

>  <Beta-1>
5.15

>  <Beta-2>
5.15

>  <DOPAMINE D1>
5.95

>  <DOPAMINE D2>
6.51

>  <DOPAMINE D3>
6.59

>  <DOPAMINE D4>
5.77

>  <DOPAMINE D5>
5.79

>  <Dopamine transporter>
5

>  <HISTAMINE H1>
8.1

>  <HISTAMINE H2>
5

>  <HISTAMINE H4>
5

>  <Muscarinic acetylcholine receptor M1>
6.71

>  <Muscarinic acetylcholine receptor M2>
6.03

>  <Muscarinic acetylcholine receptor M3>
5.69

>  <Muscarinic acetylcholine receptor M4>
6.5

>  <Muscarinic acetylcholine receptor M5>
5.58

>  <Norepinephrine transporter>
5

>  <Serotonin transporter>
5.18

$$$$
RISPERIDONE
  Marvin  02231216192D 0   1.00000     0.00000     0

 30 34  0  0  0  0  0  0  0  0999 V2000
    1.8325   -2.9394    0.0000 F   0  0  0  0  0  0  0  0  0
    2.0875   -2.1548    0.0000 C   0  0  0  0  0  0  0  0  0
    1.5354   -1.5417    0.0000 C   0  0  0  0  0  0  0  0  0
    1.7904   -0.7571    0.0000 C   0  0  0  0  0  0  0  0  0
    1.3779   -0.0426    0.0000 O   0  0  0  0  0  0  0  0  0
    1.9299    0.5705    0.0000 N   0  0  0  0  0  0  0  0  0
    2.6836    0.2349    0.0000 C   0  0  0  0  0  0  0  0  0
    2.5974   -0.5856    0.0000 C   0  0  0  0  0  0  0  0  0
    3.1494   -1.1987    0.0000 C   0  0  0  0  0  0  0  0  0
    2.8945   -1.9833    0.0000 C   0  0  0  0  0  0  0  0  0
    3.3981    0.6474    0.0000 C   0  0  0  0  0  0  0  0  0
    3.3981    1.4724    0.0000 C   0  0  0  0  0  0  0  0  0
    4.1125    1.8849    0.0000 C   0  0  0  0  0  0  0  0  0
    4.8270    1.4724    0.0000 N   0  0  0  0  0  0  0  0  0
    4.8270    0.6474    0.0000 C   0  0  0  0  0  0  0  0  0
    4.1125    0.2349    0.0000 C   0  0  0  0  0  0  0  0  0
    5.5415    1.8849    0.0000 C   0  0  0  0  0  0  0  0  0
    6.2559    1.4724    0.0000 C   0  0  0  0  0  0  0  0  0
    6.9704    1.8849    0.0000 C   0  0  0  0  0  0  0  0  0
    7.6849    1.4724    0.0000 C   0  0  0  0  0  0  0  0  0
    7.6849    0.6474    0.0000 O   0  0  0  0  0  0  0  0  0
    8.3994    1.8849    0.0000 N   0  0  0  0  0  0  0  0  0
    8.3994    2.7099    0.0000 C   0  0  0  0  0  0  0  0  0
    7.6849    3.1224    0.0000 N   0  0  0  0  0  0  0  0  0
    6.9704    2.7099    0.0000 C   0  0  0  0  0  0  0  0  0
    6.2559    3.1224    0.0000 C   0  0  0  0  0  0  0  0  0
    9.1138    3.1224    0.0000 C   0  0  0  0  0  0  0  0  0
    9.8283    2.7099    0.0000 C   0  0  0  0  0  0  0  0  0
    9.8283    1.8849    0.0000 C   0  0  0  0  0  0  0  0  0
    9.1138    1.4724    0.0000 C   0  0  0  0  0  0  0  0  0
  1  2  1  0  0  0  0
  2  3  4  0  0  0  0
  2 10  4  0  0  0  0
  3  4  4  0  0  0  0
  4  5  4  0  0  0  0
  4  8  4  0  0  0  0
  5  6  4  0  0  0  0
  6  7  4  0  0  0  0
  7  8  4  0  0  0  0
  7 11  1  0  0  0  0
  8  9  4  0  0  0  0
  9 10  4  0  0  0  0
 11 12  1  0  0  0  0
 11 16  1  0  0  0  0
 12 13  1  0  0  0  0
 13 14  1  0  0  0  0
 14 15  1  0  0  0  0
 14 17  1  0  0  0  0
 15 16  1  0  0  0  0
 17 18  1  0  0  0  0
 18 19  1  0  0  0  0
 19 20  1  0  0  0  0
 19 25  2  0  0  0  0
 20 21  2  0  0  0  0
 20 22  1  0  0  0  0
 22 23  1  0  0  0  0
 22 30  1  0  0  0  0
 23 24  2  0  0  0  0
 23 27  1  0  0  0  0
 24 25  1  0  0  0  0
 25 26  1  0  0  0  0
 27 28  1  0  0  0  0
 28 29  1  0  0  0  0
 29 30  1  0  0  0  0
M  END
>  <Name_Molregno>
RISPERIDONE

>  <5-HT1A>
6.52

>  <5-HT1B>
7.66

>  <5-HT1D>
7.6

>  <5-HT1E>
5.44

>  <5-HT2A>
9.35

>  <5-HT2C>
7.74

>  <5-HT3>
5

>  <5-HT5>
6.69

>  <5-HT6>
5.7

>  <5-HT7>
8.4

>  <Alpha-1A>
8.38

>  <Alpha-1B>
8.05

>  <Alpha-2A>
7.46

>  <Alpha-2B>
7.34

>  <Alpha-2C>
8.56

>  <Beta-1>
5.15

>  <Beta-2>
5.15

>  <DOPAMINE D1>
6.61

>  <DOPAMINE D2>
8.58

>  <DOPAMINE D3>
8.17

>  <DOPAMINE D4>
8.17

>  <DOPAMINE D5>
7.03

>  <Dopamine transporter>
5

>  <HISTAMINE H1>
7.79

>  <HISTAMINE H2>
6.92

>  <HISTAMINE H4>
5

>  <Muscarinic acetylcholine receptor M1>
5.22

>  <Muscarinic acetylcholine receptor M2>
5.14

>  <Muscarinic acetylcholine receptor M3>
5

>  <Muscarinic acetylcholine receptor M4>
5.18

>  <Muscarinic acetylcholine receptor M5>
5

>  <Norepinephrine transporter>
5

>  <Serotonin transporter>
5.67

$$$$
ROFECOXIB
  Marvin  02231216192D 0   1.00000     0.00000     0

 22 24  0  0  0  0  0  0  0  0999 V2000
   -1.7307    1.7900    0.0000 S   0  0  0  0  0  0  0  0  0
   -1.7307    2.6150    0.0000 O   0  0  0  0  0  0  0  0  0
   -2.5557    1.7900    0.0000 O   0  0  0  0  0  0  0  0  0
   -0.9057    1.7900    0.0000 C   0  0  0  0  0  0  0  0  0
   -1.7307    0.9650    0.0000 C   0  0  0  0  0  0  0  0  0
   -1.0163    0.5525    0.0000 C   0  0  0  0  0  0  0  0  0
   -1.0163   -0.2725    0.0000 C   0  0  0  0  0  0  0  0  0
   -1.7307   -0.6850    0.0000 C   0  0  0  0  0  0  0  0  0
   -2.4452   -0.2725    0.0000 C   0  0  0  0  0  0  0  0  0
   -2.4452    0.5525    0.0000 C   0  0  0  0  0  0  0  0  0
   -1.7307   -1.5100    0.0000 C   0  0  0  0  0  0  0  0  0
   -1.0633   -1.9950    0.0000 C   0  0  0  0  0  0  0  0  0
   -1.3182   -2.7796    0.0000 O   0  0  0  0  0  0  0  0  0
   -2.1432   -2.7796    0.0000 C   0  0  0  0  0  0  0  0  0
   -2.6282   -3.4470    0.0000 O   0  0  0  0  0  0  0  0  0
   -2.3982   -1.9950    0.0000 C   0  0  0  0  0  0  0  0  0
   -3.1828   -1.7400    0.0000 C   0  0  0  0  0  0  0  0  0
   -3.7959   -2.2920    0.0000 C   0  0  0  0  0  0  0  0  0
   -4.5805   -2.0371    0.0000 C   0  0  0  0  0  0  0  0  0
   -4.7520   -1.2301    0.0000 C   0  0  0  0  0  0  0  0  0
   -4.1390   -0.6781    0.0000 C   0  0  0  0  0  0  0  0  0
   -3.3543   -0.9330    0.0000 C   0  0  0  0  0  0  0  0  0
  1  2  2  0  0  0  0
  1  3  2  0  0  0  0
  1  4  1  0  0  0  0
  1  5  1  0  0  0  0
  5  6  4  0  0  0  0
  5 10  4  0  0  0  0
  6  7  4  0  0  0  0
  7  8  4  0  0  0  0
  8  9  4  0  0  0  0
  8 11  1  0  0  0  0
  9 10  4  0  0  0  0
 11 12  1  0  0  0  0
 11 16  2  0  0  0  0
 12 13  1  0  0  0  0
 13 14  1  0  0  0  0
 14 15  2  0  0  0  0
 14 16  1  0  0  0  0
 16 17  1  0  0  0  0
 17 18  4  0  0  0  0
 17 22  4  0  0  0  0
 18 19  4  0  0  0  0
 19 20  4  0  0  0  0
 20 21  4  0  0  0  0
 21 22  4  0  0  0  0
M  END
>  <Name_Molregno>
ROFECOXIB

>  <5-HT1A>
5

>  <5-HT1B>
5

>  <5-HT1D>
5

>  <5-HT1E>
5

>  <5-HT2A>
5

>  <5-HT3>
5

>  <5-HT6>
5

>  <5-HT7>
5

>  <Alpha-1A>
5

>  <Alpha-1B>
5

>  <Alpha-2A>
5

>  <Alpha-2B>
5

>  <Alpha-2C>
5

>  <DOPAMINE D1>
5

>  <DOPAMINE D2>
5

>  <DOPAMINE D5>
5

>  <Dopamine transporter>
5

>  <HISTAMINE H2>
5

>  <Muscarinic acetylcholine receptor M2>
5

>  <Muscarinic acetylcholine receptor M5>
5

>  <Norepinephrine transporter>
5

>  <Serotonin transporter>
5

$$$$
Rutin
  Marvin  02231216192D 0   1.00000     0.00000     0

 43 47  0  0  1  0  0  0  0  0999 V2000
   -0.5116   -0.2044    0.0000 O   0  0  0  0  0  0  0  0  0
   -0.5116    0.6206    0.0000 C   0  0  0  0  0  0  0  0  0
    0.2029    1.0331    0.0000 C   0  0  0  0  0  0  0  0  0
    0.2029    1.8581    0.0000 O   0  0  0  0  0  0  0  0  0
    0.9173    2.2706    0.0000 C   0  0  0  0  0  0  0  0  0
    0.9173    3.0956    0.0000 O   0  0  0  0  0  0  0  0  0
    1.6318    3.5081    0.0000 C   0  0  0  0  0  0  0  0  0
    1.6318    4.3331    0.0000 C   0  0  0  0  0  0  0  0  0
    2.3463    3.0956    0.0000 C   0  0  0  0  0  0  0  0  0
    3.0608    3.5081    0.0000 O   0  0  0  0  0  0  0  0  0
    2.3463    2.2706    0.0000 C   0  0  0  0  0  0  0  0  0
    3.0608    1.8581    0.0000 O   0  0  0  0  0  0  0  0  0
    1.6318    1.8581    0.0000 C   0  0  0  0  0  0  0  0  0
    1.6318    1.0331    0.0000 O   0  0  0  0  0  0  0  0  0
   -1.2261    1.0331    0.0000 C   0  0  0  0  0  0  0  0  0
   -1.2261    1.8581    0.0000 O   0  0  0  0  0  0  0  0  0
   -1.9405    0.6206    0.0000 C   0  0  0  0  0  0  0  0  0
   -2.6550    1.0331    0.0000 O   0  0  0  0  0  0  0  0  0
   -1.9405   -0.2044    0.0000 C   0  0  0  0  0  0  0  0  0
   -2.6550   -0.6169    0.0000 O   0  0  0  0  0  0  0  0  0
   -1.2261   -0.6169    0.0000 C   0  0  0  0  0  0  0  0  0
   -1.2261   -1.4419    0.0000 O   0  0  0  0  0  0  0  0  0
   -0.5116   -1.8544    0.0000 C   0  0  0  0  0  0  0  0  0
   -0.5116   -2.6794    0.0000 C   0  0  0  0  0  0  0  0  0
    0.2029   -3.0919    0.0000 O   0  0  0  0  0  0  0  0  0
    0.9173   -2.6794    0.0000 C   0  0  0  0  0  0  0  0  0
    0.9173   -1.8544    0.0000 C   0  0  0  0  0  0  0  0  0
    0.2029   -1.4419    0.0000 C   0  0  0  0  0  0  0  0  0
    0.2029   -0.6169    0.0000 O   0  0  0  0  0  0  0  0  0
    1.6318   -1.4419    0.0000 C   0  0  0  0  0  0  0  0  0
    1.6318   -0.6169    0.0000 O   0  0  0  0  0  0  0  0  0
    2.3463   -1.8544    0.0000 C   0  0  0  0  0  0  0  0  0
    2.3463   -2.6794    0.0000 C   0  0  0  0  0  0  0  0  0
    3.0608   -3.0919    0.0000 O   0  0  0  0  0  0  0  0  0
    1.6318   -3.0919    0.0000 C   0  0  0  0  0  0  0  0  0
   -1.2261   -3.0919    0.0000 C   0  0  0  0  0  0  0  0  0
   -1.2261   -3.9169    0.0000 C   0  0  0  0  0  0  0  0  0
   -1.9405   -4.3294    0.0000 C   0  0  0  0  0  0  0  0  0
   -1.9405   -5.1544    0.0000 O   0  0  0  0  0  0  0  0  0
   -2.6550   -3.9169    0.0000 C   0  0  0  0  0  0  0  0  0
   -3.3695   -4.3294    0.0000 O   0  0  0  0  0  0  0  0  0
   -2.6550   -3.0919    0.0000 C   0  0  0  0  0  0  0  0  0
   -1.9405   -2.6794    0.0000 C   0  0  0  0  0  0  0  0  0
  1  2  1  0  0  0  0
  1 21  1  0  0  0  0
  2  3  1  0  0  0  0
  2 15  1  0  0  0  0
  3  4  1  0  0  0  0
  4  5  1  0  0  0  0
  5  6  1  0  0  0  0
  5 13  1  0  0  0  0
  6  7  1  0  0  0  0
  7  8  1  0  0  0  0
  7  9  1  0  0  0  0
  9 10  1  0  0  0  0
  9 11  1  0  0  0  0
 11 12  1  0  0  0  0
 11 13  1  0  0  0  0
 13 14  1  0  0  0  0
 15 16  1  0  0  0  0
 15 17  1  0  0  0  0
 17 18  1  0  0  0  0
 17 19  1  0  0  0  0
 19 20  1  0  0  0  0
 19 21  1  0  0  0  0
 21 22  1  0  0  0  0
 22 23  1  0  0  0  0
 23 24  2  0  0  0  0
 23 28  1  0  0  0  0
 24 25  1  0  0  0  0
 24 36  1  0  0  0  0
 25 26  1  0  0  0  0
 26 27  4  0  0  0  0
 26 35  4  0  0  0  0
 27 28  1  0  0  0  0
 27 30  4  0  0  0  0
 28 29  2  0  0  0  0
 30 31  1  0  0  0  0
 30 32  4  0  0  0  0
 32 33  4  0  0  0  0
 33 34  1  0  0  0  0
 33 35  4  0  0  0  0
 36 37  4  0  0  0  0
 36 43  4  0  0  0  0
 37 38  4  0  0  0  0
 38 39  1  0  0  0  0
 38 40  4  0  0  0  0
 40 41  1  0  0  0  0
 40 42  4  0  0  0  0
 42 43  4  0  0  0  0
M  END
>  <Name_Molregno>
Rutin

>  <5-HT1A>
5

>  <5-HT1D>
5

>  <5-HT3>
5

>  <5-HT5>
5

>  <5-HT6>
5

>  <5-HT7>
5

>  <Alpha-1A>
5

>  <Alpha-1B>
5

>  <Alpha-2A>
5.03

>  <Alpha-2B>
5

>  <Alpha-2C>
5.02

>  <DOPAMINE D1>
5

>  <DOPAMINE D5>
5

>  <Muscarinic acetylcholine receptor M1>
5

>  <Muscarinic acetylcholine receptor M2>
5

>  <Muscarinic acetylcholine receptor M3>
5

>  <Muscarinic acetylcholine receptor M4>
5

>  <Muscarinic acetylcholine receptor M5>
7.45

>  <Norepinephrine transporter>
5

>  <Serotonin transporter>
5

$$$$
SERTRALINE
  Marvin  02231216192D 0   1.00000     0.00000     0

 20 22  0  0  1  0  0  0  0  0999 V2000
    3.7848    2.1302    0.0000 Cl  0  0  0  0  0  0  0  0  0
    3.0703    1.7177    0.0000 C   0  0  0  0  0  0  0  0  0
    3.0703    0.8927    0.0000 C   0  0  0  0  0  0  0  0  0
    2.3558    0.4802    0.0000 C   0  0  0  0  0  0  0  0  0
    1.6413    0.8927    0.0000 C   0  0  0  0  0  0  0  0  0
    1.6413    1.7177    0.0000 C   0  0  0  0  0  0  0  0  0
    2.3558    2.1302    0.0000 C   0  0  0  0  0  0  0  0  0
    2.3558    2.9552    0.0000 Cl  0  0  0  0  0  0  0  0  0
    2.3558   -0.3448    0.0000 C   0  0  0  0  0  0  0  0  0
    1.6413   -0.7573    0.0000 C   0  0  0  0  0  0  0  0  0
    1.6413   -1.5823    0.0000 C   0  0  0  0  0  0  0  0  0
    2.3558   -1.9948    0.0000 C   0  0  0  0  0  0  0  0  0
    2.3558   -2.8198    0.0000 N   0  0  0  0  0  0  0  0  0
    3.0703   -3.2323    0.0000 C   0  0  0  0  0  0  0  0  0
    3.0703   -1.5823    0.0000 C   0  0  0  0  0  0  0  0  0
    3.0703   -0.7573    0.0000 C   0  0  0  0  0  0  0  0  0
    3.7848   -0.3448    0.0000 C   0  0  0  0  0  0  0  0  0
    4.4992   -0.7573    0.0000 C   0  0  0  0  0  0  0  0  0
    4.4992   -1.5823    0.0000 C   0  0  0  0  0  0  0  0  0
    3.7848   -1.9948    0.0000 C   0  0  0  0  0  0  0  0  0
  1  2  1  0  0  0  0
  2  3  4  0  0  0  0
  2  7  4  0  0  0  0
  3  4  4  0  0  0  0
  4  5  4  0  0  0  0
  4  9  1  0  0  0  0
  5  6  4  0  0  0  0
  6  7  4  0  0  0  0
  7  8  1  0  0  0  0
  9 10  1  0  0  0  0
  9 16  1  0  0  0  0
 10 11  1  0  0  0  0
 11 12  1  0  0  0  0
 12 13  1  0  0  0  0
 12 15  1  0  0  0  0
 13 14  1  0  0  0  0
 15 16  4  0  0  0  0
 15 20  4  0  0  0  0
 16 17  4  0  0  0  0
 17 18  4  0  0  0  0
 18 19  4  0  0  0  0
 19 20  4  0  0  0  0
M  END
>  <Name_Molregno>
SERTRALINE

>  <5-HT1A>
5

>  <DOPAMINE D2>
5

>  <Dopamine transporter>
7.34

>  <HISTAMINE H1>
5

>  <Muscarinic acetylcholine receptor M1>
6.13

>  <Muscarinic acetylcholine receptor M2>
5.68

>  <Muscarinic acetylcholine receptor M3>
5.89

>  <Muscarinic acetylcholine receptor M4>
5.85

>  <Muscarinic acetylcholine receptor M5>
5.72

>  <Norepinephrine transporter>
6.1

>  <Serotonin transporter>
9.17

$$$$
SR46349B
  Marvin  02231216192D 0   1.00000     0.00000     0

 24 25  0  0  0  0  0  0  0  0999 V2000
   -0.7835    2.8630    0.0000 F   0  0  0  0  0  0  0  0  0
   -0.0691    3.2755    0.0000 C   0  0  0  0  0  0  0  0  0
   -0.0691    4.1005    0.0000 C   0  0  0  0  0  0  0  0  0
    0.6454    4.5130    0.0000 C   0  0  0  0  0  0  0  0  0
    1.3599    4.1005    0.0000 C   0  0  0  0  0  0  0  0  0
    1.3599    3.2755    0.0000 C   0  0  0  0  0  0  0  0  0
    0.6454    2.8630    0.0000 C   0  0  0  0  0  0  0  0  0
    0.6454    2.0380    0.0000 C   0  0  0  0  0  0  0  0  0
    1.3599    1.6255    0.0000 N   0  0  0  0  0  0  0  0  0
    2.0743    2.0380    0.0000 O   0  0  0  0  0  0  0  0  0
    2.7888    1.6255    0.0000 C   0  0  0  0  0  0  0  0  0
    3.5033    2.0380    0.0000 C   0  0  0  0  0  0  0  0  0
    4.2177    1.6255    0.0000 N   0  0  0  0  0  0  0  0  0
    4.9322    2.0380    0.0000 C   0  0  0  0  0  0  0  0  0
    4.2177    0.8005    0.0000 C   0  0  0  0  0  0  0  0  0
   -0.0691    1.6255    0.0000 C   0  0  0  0  0  0  0  0  0
   -0.0691    0.8005    0.0000 C   0  0  0  0  0  0  0  0  0
   -0.7835    0.3880    0.0000 C   0  0  0  0  0  0  0  0  0
   -0.7835   -0.4370    0.0000 C   0  0  0  0  0  0  0  0  0
   -1.4980   -0.8495    0.0000 C   0  0  0  0  0  0  0  0  0
   -2.2125   -0.4370    0.0000 C   0  0  0  0  0  0  0  0  0
   -2.9270   -0.8495    0.0000 O   0  0  0  0  0  0  0  0  0
   -2.2125    0.3880    0.0000 C   0  0  0  0  0  0  0  0  0
   -1.4980    0.8005    0.0000 C   0  0  0  0  0  0  0  0  0
  1  2  1  0  0  0  0
  2  3  4  0  0  0  0
  2  7  4  0  0  0  0
  3  4  4  0  0  0  0
  4  5  4  0  0  0  0
  5  6  4  0  0  0  0
  6  7  4  0  0  0  0
  7  8  1  0  0  0  0
  8  9  1  0  0  0  0
  8 16  2  0  0  0  0
  9 10  1  0  0  0  0
 10 11  1  0  0  0  0
 11 12  1  0  0  0  0
 12 13  1  0  0  0  0
 13 14  1  0  0  0  0
 13 15  1  0  0  0  0
 16 17  1  0  0  0  0
 17 18  2  0  0  0  0
 18 19  1  0  0  0  0
 18 24  1  0  0  0  0
 19 20  2  0  0  0  0
 20 21  1  0  0  0  0
 21 22  2  0  0  0  0
 21 23  1  0  0  0  0
 23 24  2  0  0  0  0
M  END
>  <Name_Molregno>
SR46349B

>  <5-HT1A>
5.6

>  <5-HT2A>
9

>  <5-HT2C>
8.09

>  <5-HT5>
5.76

>  <5-HT6>
5.41

>  <Alpha-2A>
6.14

>  <Alpha-2C>
5.67

>  <DOPAMINE D1>
5

>  <Dopamine transporter>
5.25

>  <Muscarinic acetylcholine receptor M1>
6.14

>  <Muscarinic acetylcholine receptor M2>
5

>  <Muscarinic acetylcholine receptor M3>
5.62

>  <Muscarinic acetylcholine receptor M4>
5.44

>  <Muscarinic acetylcholine receptor M5>
5.52

>  <Norepinephrine transporter>
6.13

$$$$
THIORIDAZINE
  Marvin  02231216192D 0   1.00000     0.00000     0

 25 28  0  0  1  0  0  0  0  0999 V2000
    1.0601   -0.3753    0.0000 S   0  0  0  0  0  0  0  0  0
    1.7746    0.0372    0.0000 C   0  0  0  0  0  0  0  0  0
    1.7746    0.8622    0.0000 C   0  0  0  0  0  0  0  0  0
    1.0601    1.2747    0.0000 N   0  0  0  0  0  0  0  0  0
    0.3456    0.8622    0.0000 C   0  0  0  0  0  0  0  0  0
    0.3456    0.0372    0.0000 C   0  0  0  0  0  0  0  0  0
   -0.3689   -0.3753    0.0000 C   0  0  0  0  0  0  0  0  0
   -1.0833    0.0372    0.0000 C   0  0  0  0  0  0  0  0  0
   -1.0833    0.8622    0.0000 C   0  0  0  0  0  0  0  0  0
   -0.3689    1.2747    0.0000 C   0  0  0  0  0  0  0  0  0
    1.0601    2.0997    0.0000 C   0  0  0  0  0  0  0  0  0
    0.3456    2.5122    0.0000 C   0  0  0  0  0  0  0  0  0
    0.3456    3.3372    0.0000 C   0  0  0  0  0  0  0  0  0
   -0.3689    3.7497    0.0000 N   0  0  0  0  0  0  0  0  0
   -0.3689    4.5747    0.0000 C   0  0  0  0  0  0  0  0  0
    0.3456    4.9872    0.0000 C   0  0  0  0  0  0  0  0  0
    1.0601    4.5747    0.0000 C   0  0  0  0  0  0  0  0  0
    1.0601    3.7497    0.0000 C   0  0  0  0  0  0  0  0  0
   -1.0833    3.3372    0.0000 C   0  0  0  0  0  0  0  0  0
    2.4890    1.2747    0.0000 C   0  0  0  0  0  0  0  0  0
    3.2035    0.8622    0.0000 C   0  0  0  0  0  0  0  0  0
    3.9180    1.2747    0.0000 S   0  0  0  0  0  0  0  0  0
    3.9180    2.0997    0.0000 C   0  0  0  0  0  0  0  0  0
    3.2035    0.0372    0.0000 C   0  0  0  0  0  0  0  0  0
    2.4890   -0.3753    0.0000 C   0  0  0  0  0  0  0  0  0
  1  2  1  0  0  0  0
  1  6  1  0  0  0  0
  2  3  4  0  0  0  0
  2 25  4  0  0  0  0
  3  4  1  0  0  0  0
  3 20  4  0  0  0  0
  4  5  1  0  0  0  0
  4 11  1  0  0  0  0
  5  6  4  0  0  0  0
  5 10  4  0  0  0  0
  6  7  4  0  0  0  0
  7  8  4  0  0  0  0
  8  9  4  0  0  0  0
  9 10  4  0  0  0  0
 11 12  1  0  0  0  0
 12 13  1  0  0  0  0
 13 14  1  0  0  0  0
 13 18  1  0  0  0  0
 14 15  1  0  0  0  0
 14 19  1  0  0  0  0
 15 16  1  0  0  0  0
 16 17  1  0  0  0  0
 17 18  1  0  0  0  0
 20 21  4  0  0  0  0
 21 22  1  0  0  0  0
 21 24  4  0  0  0  0
 22 23  1  0  0  0  0
 24 25  4  0  0  0  0
M  END
>  <Name_Molregno>
THIORIDAZINE

>  <5-HT1A>
6.85

>  <5-HT1B>
6.96

>  <5-HT1D>
6.24

>  <5-HT1E>
6.71

>  <5-HT2A>
7.95

>  <5-HT2C>
7.28

>  <5-HT3>
5

>  <5-HT5>
6.44

>  <5-HT6>
7.24

>  <5-HT7>
7.05

>  <Alpha-1A>
8.6

>  <Alpha-1B>
8.62

>  <Alpha-2A>
6.87

>  <Alpha-2B>
6.47

>  <Alpha-2C>
7.13

>  <Beta-1>
5

>  <Beta-2>
5

>  <DOPAMINE D1>
7.03

>  <DOPAMINE D2>
8.31

>  <DOPAMINE D3>
8.59

>  <DOPAMINE D4>
8.21

>  <DOPAMINE D5>
6.6

>  <Dopamine transporter>
5.77

>  <HISTAMINE H1>
7.79

>  <HISTAMINE H2>
6.87

>  <HISTAMINE H4>
5.62

>  <Muscarinic acetylcholine receptor M1>
8.21

>  <Muscarinic acetylcholine receptor M2>
7.26

>  <Muscarinic acetylcholine receptor M3>
7.6

>  <Muscarinic acetylcholine receptor M4>
7.38

>  <Muscarinic acetylcholine receptor M5>
7.9

>  <Norepinephrine transporter>
6.07

>  <Serotonin transporter>
5.9

$$$$
TRANYLCYPROMINE
  Marvin  02231216192D 0   1.00000     0.00000     0

 10 11  0  0  1  0  0  0  0  0999 V2000
    3.0600    1.1452    0.0000 N   0  0  0  0  0  0  0  0  0
    3.0600    0.3202    0.0000 C   0  0  0  0  0  0  0  0  0
    3.4725   -0.3943    0.0000 C   0  0  0  0  0  0  0  0  0
    2.6475   -0.3943    0.0000 C   0  0  0  0  0  0  0  0  0
    1.9330   -0.8068    0.0000 C   0  0  0  0  0  0  0  0  0
    1.9330   -1.6318    0.0000 C   0  0  0  0  0  0  0  0  0
    1.2185   -2.0443    0.0000 C   0  0  0  0  0  0  0  0  0
    0.5040   -1.6318    0.0000 C   0  0  0  0  0  0  0  0  0
    0.5040   -0.8068    0.0000 C   0  0  0  0  0  0  0  0  0
    1.2185   -0.3943    0.0000 C   0  0  0  0  0  0  0  0  0
  1  2  1  0  0  0  0
  2  3  1  0  0  0  0
  2  4  1  0  0  0  0
  3  4  1  0  0  0  0
  4  5  1  0  0  0  0
  5  6  4  0  0  0  0
  5 10  4  0  0  0  0
  6  7  4  0  0  0  0
  7  8  4  0  0  0  0
  8  9  4  0  0  0  0
  9 10  4  0  0  0  0
M  END
>  <Name_Molregno>
TRANYLCYPROMINE

>  <5-HT1A>
5.22

>  <DOPAMINE D1>
5

>  <DOPAMINE D2>
5

>  <Dopamine transporter>
5.29

>  <Norepinephrine transporter>
5.23

>  <Serotonin transporter>
5

$$$$
TRAZODONE
  Marvin  02231216192D 0   1.00000     0.00000     0

 26 29  0  0  0  0  0  0  0  0999 V2000
    0.6158   -2.7707    0.0000 Cl  0  0  0  0  0  0  0  0  0
    1.4408   -2.7707    0.0000 C   0  0  0  0  0  0  0  0  0
    1.8533   -2.0563    0.0000 C   0  0  0  0  0  0  0  0  0
    2.6783   -2.0563    0.0000 C   0  0  0  0  0  0  0  0  0
    3.0908   -1.3418    0.0000 N   0  0  0  0  0  0  0  0  0
    2.6783   -0.6273    0.0000 C   0  0  0  0  0  0  0  0  0
    3.0908    0.0872    0.0000 C   0  0  0  0  0  0  0  0  0
    3.9158    0.0872    0.0000 N   0  0  0  0  0  0  0  0  0
    4.3283   -0.6273    0.0000 C   0  0  0  0  0  0  0  0  0
    3.9158   -1.3418    0.0000 C   0  0  0  0  0  0  0  0  0
    4.3283    0.8016    0.0000 C   0  0  0  0  0  0  0  0  0
    5.1533    0.8016    0.0000 C   0  0  0  0  0  0  0  0  0
    5.5658    1.5161    0.0000 C   0  0  0  0  0  0  0  0  0
    6.3908    1.5161    0.0000 N   0  0  0  0  0  0  0  0  0
    6.8757    0.8487    0.0000 N   0  0  0  0  0  0  0  0  0
    7.6604    1.1036    0.0000 C   0  0  0  0  0  0  0  0  0
    7.6604    1.9286    0.0000 N   0  0  0  0  0  0  0  0  0
    8.3748    2.3411    0.0000 C   0  0  0  0  0  0  0  0  0
    9.0893    1.9286    0.0000 C   0  0  0  0  0  0  0  0  0
    9.0893    1.1036    0.0000 C   0  0  0  0  0  0  0  0  0
    8.3748    0.6911    0.0000 C   0  0  0  0  0  0  0  0  0
    6.8757    2.1835    0.0000 C   0  0  0  0  0  0  0  0  0
    6.6208    2.9682    0.0000 O   0  0  0  0  0  0  0  0  0
    3.0908   -2.7707    0.0000 C   0  0  0  0  0  0  0  0  0
    2.6783   -3.4852    0.0000 C   0  0  0  0  0  0  0  0  0
    1.8533   -3.4852    0.0000 C   0  0  0  0  0  0  0  0  0
  1  2  1  0  0  0  0
  2  3  4  0  0  0  0
  2 26  4  0  0  0  0
  3  4  4  0  0  0  0
  4  5  1  0  0  0  0
  4 24  4  0  0  0  0
  5  6  1  0  0  0  0
  5 10  1  0  0  0  0
  6  7  1  0  0  0  0
  7  8  1  0  0  0  0
  8  9  1  0  0  0  0
  8 11  1  0  0  0  0
  9 10  1  0  0  0  0
 11 12  1  0  0  0  0
 12 13  1  0  0  0  0
 13 14  1  0  0  0  0
 14 15  1  0  0  0  0
 14 22  1  0  0  0  0
 15 16  2  0  0  0  0
 16 17  1  0  0  0  0
 16 21  1  0  0  0  0
 17 18  1  0  0  0  0
 17 22  1  0  0  0  0
 18 19  2  0  0  0  0
 19 20  1  0  0  0  0
 20 21  2  0  0  0  0
 22 23  2  0  0  0  0
 24 25  4  0  0  0  0
 25 26  4  0  0  0  0
M  END
>  <Name_Molregno>
TRAZODONE

>  <5-HT1A>
6.97

>  <5-HT1B>
5

>  <5-HT1D>
6.97

>  <5-HT1E>
5

>  <5-HT2A>
7.46

>  <5-HT2C>
6.65

>  <5-HT3>
5

>  <5-HT5>
5

>  <5-HT6>
5

>  <5-HT7>
5.75

>  <Alpha-1A>
6.82

>  <Alpha-2A>
6.14

>  <Alpha-2C>
6.81

>  <Beta-1>
5

>  <Beta-2>
5

>  <DOPAMINE D1>
5.43

>  <DOPAMINE D2>
5.42

>  <DOPAMINE D4>
6.15

>  <DOPAMINE D5>
5

>  <Dopamine transporter>
5.07

>  <HISTAMINE H1>
6.31

>  <HISTAMINE H2>
5.48

>  <HISTAMINE H4>
5

>  <Muscarinic acetylcholine receptor M1>
5

>  <Muscarinic acetylcholine receptor M2>
5

>  <Muscarinic acetylcholine receptor M3>
5

>  <Muscarinic acetylcholine receptor M4>
5

>  <Muscarinic acetylcholine receptor M5>
5

>  <Norepinephrine transporter>
5.02

>  <Serotonin transporter>
6.14

$$$$
Trimipramine
  Marvin  02231216192D 0   1.00000     0.00000     0

 22 24  0  0  1  0  0  0  0  0999 V2000
   -0.5470    1.2413    0.0000 N   0  0  0  0  0  0  0  0  0
    0.1675    0.8288    0.0000 C   0  0  0  0  0  0  0  0  0
    0.8820    1.2413    0.0000 C   0  0  0  0  0  0  0  0  0
    1.5964    0.8288    0.0000 C   0  0  0  0  0  0  0  0  0
    2.3109    1.2413    0.0000 N   0  0  0  0  0  0  0  0  0
    2.2492    2.0640    0.0000 C   0  0  0  0  0  0  0  0  0
    2.8540    2.6251    0.0000 C   0  0  0  0  0  0  0  0  0
    3.6698    2.5022    0.0000 C   0  0  0  0  0  0  0  0  0
    4.0823    1.7877    0.0000 C   0  0  0  0  0  0  0  0  0
    3.7809    1.0197    0.0000 C   0  0  0  0  0  0  0  0  0
    2.9925    0.7766    0.0000 C   0  0  0  0  0  0  0  0  0
    2.8090   -0.0278    0.0000 C   0  0  0  0  0  0  0  0  0
    3.4137   -0.5889    0.0000 C   0  0  0  0  0  0  0  0  0
    4.2021   -0.3457    0.0000 C   0  0  0  0  0  0  0  0  0
    4.3857    0.4586    0.0000 C   0  0  0  0  0  0  0  0  0
    2.6704    3.4294    0.0000 C   0  0  0  0  0  0  0  0  0
    1.8821    3.6726    0.0000 C   0  0  0  0  0  0  0  0  0
    1.2773    3.1115    0.0000 C   0  0  0  0  0  0  0  0  0
    1.4609    2.3072    0.0000 C   0  0  0  0  0  0  0  0  0
    0.8820    2.0663    0.0000 C   0  0  0  0  0  0  0  0  0
   -1.2615    0.8288    0.0000 C   0  0  0  0  0  0  0  0  0
   -0.5470    2.0663    0.0000 C   0  0  0  0  0  0  0  0  0
  1  2  1  0  0  0  0
  1 21  1  0  0  0  0
  1 22  1  0  0  0  0
  2  3  1  0  0  0  0
  3  4  1  0  0  0  0
  3 20  1  0  0  0  0
  4  5  1  0  0  0  0
  5  6  1  0  0  0  0
  5 11  1  0  0  0  0
  6  7  4  0  0  0  0
  6 19  4  0  0  0  0
  7  8  1  0  0  0  0
  7 16  4  0  0  0  0
  8  9  1  0  0  0  0
  9 10  1  0  0  0  0
 10 11  4  0  0  0  0
 10 15  4  0  0  0  0
 11 12  4  0  0  0  0
 12 13  4  0  0  0  0
 13 14  4  0  0  0  0
 14 15  4  0  0  0  0
 16 17  4  0  0  0  0
 17 18  4  0  0  0  0
 18 19  4  0  0  0  0
M  END
>  <Name_Molregno>
Trimipramine

>  <Dopamine transporter>
5.42

>  <HISTAMINE H1>
8.85

>  <Norepinephrine transporter>
5.61

>  <Serotonin transporter>
6.83

$$$$
Venlafaxine
  Marvin  02231216192D 0   1.00000     0.00000     0

 20 21  0  0  1  0  0  0  0  0999 V2000
    2.4113    2.7171    0.0000 O   0  0  0  0  0  0  0  0  0
    1.6968    3.1296    0.0000 C   0  0  0  0  0  0  0  0  0
    2.4113    1.8921    0.0000 C   0  0  0  0  0  0  0  0  0
    3.1257    1.4796    0.0000 C   0  0  0  0  0  0  0  0  0
    3.1257    0.6546    0.0000 C   0  0  0  0  0  0  0  0  0
    2.4113    0.2421    0.0000 C   0  0  0  0  0  0  0  0  0
    1.6968    0.6546    0.0000 C   0  0  0  0  0  0  0  0  0
    1.6968    1.4796    0.0000 C   0  0  0  0  0  0  0  0  0
    2.4113   -0.5829    0.0000 C   0  0  0  0  0  0  0  0  0
    1.6968   -0.9954    0.0000 C   0  0  0  0  0  0  0  0  0
    1.6968   -1.8204    0.0000 N   0  0  0  0  0  0  0  0  0
    2.4113   -2.2329    0.0000 C   0  0  0  0  0  0  0  0  0
    0.9823   -2.2329    0.0000 C   0  0  0  0  0  0  0  0  0
    3.1257   -0.9954    0.0000 C   0  0  0  0  0  0  0  0  0
    2.5954   -1.6274    0.0000 O   0  0  0  0  0  0  0  0  0
    3.4079   -0.2201    0.0000 C   0  0  0  0  0  0  0  0  0
    4.2204   -0.0769    0.0000 C   0  0  0  0  0  0  0  0  0
    4.7507   -0.7089    0.0000 C   0  0  0  0  0  0  0  0  0
    4.4685   -1.4841    0.0000 C   0  0  0  0  0  0  0  0  0
    3.6560   -1.6274    0.0000 C   0  0  0  0  0  0  0  0  0
  1  2  1  0  0  0  0
  1  3  1  0  0  0  0
  3  4  4  0  0  0  0
  3  8  4  0  0  0  0
  4  5  4  0  0  0  0
  5  6  4  0  0  0  0
  6  7  4  0  0  0  0
  6  9  1  0  0  0  0
  7  8  4  0  0  0  0
  9 10  1  0  0  0  0
  9 14  1  0  0  0  0
 10 11  1  0  0  0  0
 11 12  1  0  0  0  0
 11 13  1  0  0  0  0
 14 15  1  0  0  0  0
 14 16  1  0  0  0  0
 14 20  1  0  0  0  0
 16 17  1  0  0  0  0
 17 18  1  0  0  0  0
 18 19  1  0  0  0  0
 19 20  1  0  0  0  0
M  END
>  <Name_Molregno>
Venlafaxine

>  <5-HT1A>
5

>  <5-HT1B>
5

>  <5-HT1D>
5

>  <5-HT1E>
5

>  <5-HT2A>
5.33

>  <5-HT2C>
5.35

>  <5-HT6>
5.55

>  <5-HT7>
5

>  <Alpha-1A>
5

>  <Alpha-2A>
5.5

>  <DOPAMINE D2>
5

>  <DOPAMINE D3>
5

>  <Dopamine transporter>
5.17

>  <HISTAMINE H1>
5

>  <Muscarinic acetylcholine receptor M1>
5.5

>  <Muscarinic acetylcholine receptor M2>
5.5

>  <Muscarinic acetylcholine receptor M3>
5

>  <Muscarinic acetylcholine receptor M4>
5

>  <Muscarinic acetylcholine receptor M5>
5

>  <Norepinephrine transporter>
5.82

>  <Serotonin transporter>
7.43

$$$$
Viloxazine
  Marvin  02231216192D 0   1.00000     0.00000     0

 17 18  0  0  1  0  0  0  0  0999 V2000
    1.6078   -1.4363    0.0000 O   0  0  0  0  0  0  0  0  0
    1.6078   -2.2613    0.0000 C   0  0  0  0  0  0  0  0  0
    0.8934   -2.6738    0.0000 C   0  0  0  0  0  0  0  0  0
    0.1789   -2.2613    0.0000 N   0  0  0  0  0  0  0  0  0
    0.1789   -1.4363    0.0000 C   0  0  0  0  0  0  0  0  0
    0.8934   -1.0238    0.0000 C   0  0  0  0  0  0  0  0  0
    0.8934   -0.1988    0.0000 C   0  0  0  0  0  0  0  0  0
    1.6078    0.2137    0.0000 O   0  0  0  0  0  0  0  0  0
    1.6078    1.0387    0.0000 C   0  0  0  0  0  0  0  0  0
    0.8934    1.4513    0.0000 C   0  0  0  0  0  0  0  0  0
    0.8934    2.2763    0.0000 C   0  0  0  0  0  0  0  0  0
    1.6078    2.6888    0.0000 C   0  0  0  0  0  0  0  0  0
    2.3223    2.2763    0.0000 C   0  0  0  0  0  0  0  0  0
    2.3223    1.4513    0.0000 C   0  0  0  0  0  0  0  0  0
    3.0368    1.0388    0.0000 O   0  0  0  0  0  0  0  0  0
    3.0368    0.2138    0.0000 C   0  0  0  0  0  0  0  0  0
    3.7512   -0.1987    0.0000 C   0  0  0  0  0  0  0  0  0
  1  2  1  0  0  0  0
  1  6  1  0  0  0  0
  2  3  1  0  0  0  0
  3  4  1  0  0  0  0
  4  5  1  0  0  0  0
  5  6  1  0  0  0  0
  6  7  1  0  0  0  0
  7  8  1  0  0  0  0
  8  9  1  0  0  0  0
  9 10  4  0  0  0  0
  9 14  4  0  0  0  0
 10 11  4  0  0  0  0
 11 12  4  0  0  0  0
 12 13  4  0  0  0  0
 13 14  4  0  0  0  0
 14 15  1  0  0  0  0
 15 16  1  0  0  0  0
 16 17  1  0  0  0  0
M  END
>  <Name_Molregno>
Viloxazine

>  <Dopamine transporter>
5

>  <Norepinephrine transporter>
6.81

>  <Serotonin transporter>
5

$$$$
ZIMELIDINE
  Marvin  02231216192D 0   1.00000     0.00000     0

 19 20  0  0  0  0  0  0  0  0999 V2000
    3.0388    3.1498    0.0000 Br  0  0  0  0  0  0  0  0  0
    3.0388    2.3248    0.0000 C   0  0  0  0  0  0  0  0  0
    3.7533    1.9123    0.0000 C   0  0  0  0  0  0  0  0  0
    3.7533    1.0873    0.0000 C   0  0  0  0  0  0  0  0  0
    3.0388    0.6748    0.0000 C   0  0  0  0  0  0  0  0  0
    2.3243    1.0873    0.0000 C   0  0  0  0  0  0  0  0  0
    2.3243    1.9123    0.0000 C   0  0  0  0  0  0  0  0  0
    3.0388   -0.1502    0.0000 C   0  0  0  0  0  0  0  0  0
    2.3243   -0.5627    0.0000 C   0  0  0  0  0  0  0  0  0
    2.3243   -1.3877    0.0000 C   0  0  0  0  0  0  0  0  0
    1.6099   -1.8002    0.0000 N   0  0  0  0  0  0  0  0  0
    1.6099   -2.6252    0.0000 C   0  0  0  0  0  0  0  0  0
    0.8954   -1.3877    0.0000 C   0  0  0  0  0  0  0  0  0
    3.7533   -0.5627    0.0000 C   0  0  0  0  0  0  0  0  0
    4.4677   -0.1502    0.0000 C   0  0  0  0  0  0  0  0  0
    5.1822   -0.5627    0.0000 C   0  0  0  0  0  0  0  0  0
    5.1822   -1.3877    0.0000 C   0  0  0  0  0  0  0  0  0
    4.4677   -1.8002    0.0000 N   0  0  0  0  0  0  0  0  0
    3.7533   -1.3877    0.0000 C   0  0  0  0  0  0  0  0  0
  1  2  1  0  0  0  0
  2  3  4  0  0  0  0
  2  7  4  0  0  0  0
  3  4  4  0  0  0  0
  4  5  4  0  0  0  0
  5  6  4  0  0  0  0
  5  8  1  0  0  0  0
  6  7  4  0  0  0  0
  8  9  2  0  0  0  0
  8 14  1  0  0  0  0
  9 10  1  0  0  0  0
 10 11  1  0  0  0  0
 11 12  1  0  0  0  0
 11 13  1  0  0  0  0
 14 15  4  0  0  0  0
 14 19  4  0  0  0  0
 15 16  4  0  0  0  0
 16 17  4  0  0  0  0
 17 18  4  0  0  0  0
 18 19  4  0  0  0  0
M  END
>  <Name_Molregno>
ZIMELIDINE

>  <5-HT1A>
5

>  <DOPAMINE D1>
5

>  <DOPAMINE D2>
5.73

>  <Dopamine transporter>
5

>  <Norepinephrine transporter>
5.03

>  <Serotonin transporter>
6.82

$$$$
ZIPRASIDONE
  Marvin  02231216192D 0   1.00000     0.00000     0

 28 32  0  0  0  0  0  0  0  0999 V2000
   -5.2868    0.2535    0.0000 Cl  0  0  0  0  0  0  0  0  0
   -4.7347    0.8666    0.0000 C   0  0  0  0  0  0  0  0  0
   -4.9897    1.6513    0.0000 C   0  0  0  0  0  0  0  0  0
   -4.4376    2.2643    0.0000 C   0  0  0  0  0  0  0  0  0
   -4.5239    3.0848    0.0000 N   0  0  0  0  0  0  0  0  0
   -3.7702    3.4204    0.0000 C   0  0  0  0  0  0  0  0  0
   -3.5987    4.2274    0.0000 O   0  0  0  0  0  0  0  0  0
   -3.2182    2.8073    0.0000 C   0  0  0  0  0  0  0  0  0
   -3.6307    2.0928    0.0000 C   0  0  0  0  0  0  0  0  0
   -3.3757    1.3082    0.0000 C   0  0  0  0  0  0  0  0  0
   -3.9278    0.6951    0.0000 C   0  0  0  0  0  0  0  0  0
   -3.6728   -0.0895    0.0000 C   0  0  0  0  0  0  0  0  0
   -2.8658   -0.2610    0.0000 C   0  0  0  0  0  0  0  0  0
   -2.6109   -1.0457    0.0000 N   0  0  0  0  0  0  0  0  0
   -1.8039   -1.2172    0.0000 C   0  0  0  0  0  0  0  0  0
   -1.5490   -2.0018    0.0000 C   0  0  0  0  0  0  0  0  0
   -2.1010   -2.6149    0.0000 N   0  0  0  0  0  0  0  0  0
   -2.9080   -2.4434    0.0000 C   0  0  0  0  0  0  0  0  0
   -3.1629   -1.6588    0.0000 C   0  0  0  0  0  0  0  0  0
   -1.8461   -3.3995    0.0000 C   0  0  0  0  0  0  0  0  0
   -2.3310   -4.0670    0.0000 N   0  0  0  0  0  0  0  0  0
   -1.8461   -4.7344    0.0000 S   0  0  0  0  0  0  0  0  0
   -1.0615   -4.4795    0.0000 C   0  0  0  0  0  0  0  0  0
   -1.0615   -3.6545    0.0000 C   0  0  0  0  0  0  0  0  0
   -0.3470   -3.2420    0.0000 C   0  0  0  0  0  0  0  0  0
    0.3675   -3.6545    0.0000 C   0  0  0  0  0  0  0  0  0
    0.3675   -4.4795    0.0000 C   0  0  0  0  0  0  0  0  0
   -0.3470   -4.8920    0.0000 C   0  0  0  0  0  0  0  0  0
  1  2  1  0  0  0  0
  2  3  4  0  0  0  0
  2 11  4  0  0  0  0
  3  4  4  0  0  0  0
  4  5  1  0  0  0  0
  4  9  4  0  0  0  0
  5  6  1  0  0  0  0
  6  7  2  0  0  0  0
  6  8  1  0  0  0  0
  8  9  1  0  0  0  0
  9 10  4  0  0  0  0
 10 11  4  0  0  0  0
 11 12  1  0  0  0  0
 12 13  1  0  0  0  0
 13 14  1  0  0  0  0
 14 15  1  0  0  0  0
 14 19  1  0  0  0  0
 15 16  1  0  0  0  0
 16 17  1  0  0  0  0
 17 18  1  0  0  0  0
 17 20  1  0  0  0  0
 18 19  1  0  0  0  0
 20 21  4  0  0  0  0
 20 24  4  0  0  0  0
 21 22  4  0  0  0  0
 22 23  4  0  0  0  0
 23 24  4  0  0  0  0
 23 28  4  0  0  0  0
 24 25  4  0  0  0  0
 25 26  4  0  0  0  0
 26 27  4  0  0  0  0
 27 28  4  0  0  0  0
M  END
>  <Name_Molregno>
ZIPRASIDONE

>  <5-HT1A>
8.19

>  <5-HT1B>
8.7

>  <5-HT1D>
8.32

>  <5-HT1E>
6.17

>  <5-HT2A>
9.54

>  <5-HT2C>
8.82

>  <5-HT3>
5.7

>  <5-HT5>
6.54

>  <5-HT6>
7.17

>  <5-HT7>
8.23

>  <Alpha-1A>
7.74

>  <Alpha-1B>
8.05

>  <Alpha-2A>
6.8

>  <Alpha-2B>
7.32

>  <Alpha-2C>
7.15

>  <Beta-1>
5.3

>  <Beta-2>
5.15

>  <DOPAMINE D1>
7.1

>  <DOPAMINE D2>
8.39

>  <DOPAMINE D3>
8.21

>  <DOPAMINE D4>
7.43

>  <DOPAMINE D5>
6.82

>  <Dopamine transporter>
5

>  <HISTAMINE H1>
7.51

>  <HISTAMINE H2>
5.46

>  <HISTAMINE H4>
5

>  <Muscarinic acetylcholine receptor M1>
5.53

>  <Muscarinic acetylcholine receptor M2>
5.26

>  <Muscarinic acetylcholine receptor M3>
5.3

>  <Muscarinic acetylcholine receptor M4>
5.4

>  <Muscarinic acetylcholine receptor M5>
5.4

>  <Norepinephrine transporter>
7.36

>  <Serotonin transporter>
6.92

$$$$
ZOTEPINE
  Marvin  02231216192D 0   1.00000     0.00000     0

 22 24  0  0  0  0  0  0  0  0999 V2000
    1.8575   -4.4413    0.0000 Cl  0  0  0  0  0  0  0  0  0
    1.0691   -4.1981    0.0000 C   0  0  0  0  0  0  0  0  0
    0.8856   -3.3938    0.0000 C   0  0  0  0  0  0  0  0  0
    0.0972   -3.1507    0.0000 C   0  0  0  0  0  0  0  0  0
   -0.5076   -3.7118    0.0000 C   0  0  0  0  0  0  0  0  0
   -1.3233   -3.5888    0.0000 S   0  0  0  0  0  0  0  0  0
   -1.7358   -2.8744    0.0000 C   0  0  0  0  0  0  0  0  0
   -1.4344   -2.1064    0.0000 C   0  0  0  0  0  0  0  0  0
   -0.6461   -1.8632    0.0000 C   0  0  0  0  0  0  0  0  0
    0.0356   -2.3280    0.0000 C   0  0  0  0  0  0  0  0  0
    0.7500   -1.9155    0.0000 O   0  0  0  0  0  0  0  0  0
    1.4645   -2.3280    0.0000 C   0  0  0  0  0  0  0  0  0
    2.1790   -1.9155    0.0000 C   0  0  0  0  0  0  0  0  0
    2.8934   -2.3280    0.0000 N   0  0  0  0  0  0  0  0  0
    3.6079   -1.9155    0.0000 C   0  0  0  0  0  0  0  0  0
    2.8934   -3.1530    0.0000 C   0  0  0  0  0  0  0  0  0
   -1.9488   -1.4614    0.0000 C   0  0  0  0  0  0  0  0  0
   -2.7646   -1.5843    0.0000 C   0  0  0  0  0  0  0  0  0
   -3.0660   -2.3523    0.0000 C   0  0  0  0  0  0  0  0  0
   -2.5516   -2.9973    0.0000 C   0  0  0  0  0  0  0  0  0
   -0.3240   -4.5161    0.0000 C   0  0  0  0  0  0  0  0  0
    0.4644   -4.7593    0.0000 C   0  0  0  0  0  0  0  0  0
  1  2  1  0  0  0  0
  2  3  4  0  0  0  0
  2 22  4  0  0  0  0
  3  4  4  0  0  0  0
  4  5  4  0  0  0  0
  4 10  1  0  0  0  0
  5  6  1  0  0  0  0
  5 21  4  0  0  0  0
  6  7  1  0  0  0  0
  7  8  4  0  0  0  0
  7 20  4  0  0  0  0
  8  9  1  0  0  0  0
  8 17  4  0  0  0  0
  9 10  2  0  0  0  0
 10 11  1  0  0  0  0
 11 12  1  0  0  0  0
 12 13  1  0  0  0  0
 13 14  1  0  0  0  0
 14 15  1  0  0  0  0
 14 16  1  0  0  0  0
 17 18  4  0  0  0  0
 18 19  4  0  0  0  0
 19 20  4  0  0  0  0
 21 22  4  0  0  0  0
M  END
>  <Name_Molregno>
ZOTEPINE

>  <5-HT1A>
6.41

>  <5-HT1B>
7.23

>  <5-HT1D>
7.02

>  <5-HT1E>
6.23

>  <5-HT2A>
8.58

>  <5-HT2C>
8.49

>  <5-HT3>
6.33

>  <5-HT5>
7.54

>  <5-HT6>
8.22

>  <5-HT7>
7.92

>  <Alpha-1A>
8.15

>  <Alpha-1B>
8.3

>  <Alpha-2A>
6.68

>  <Alpha-2B>
8.27

>  <Alpha-2C>
7.02

>  <Beta-1>
5.19

>  <Beta-2>
5.32

>  <DOPAMINE D1>
7.15

>  <DOPAMINE D2>
7.98

>  <DOPAMINE D3>
8.19

>  <DOPAMINE D4>
7.57

>  <DOPAMINE D5>
6.61

>  <Dopamine transporter>
5.44

>  <HISTAMINE H1>
8.64

>  <HISTAMINE H2>
6.3

>  <HISTAMINE H4>
5.7

>  <Muscarinic acetylcholine receptor M1>
6.37

>  <Muscarinic acetylcholine receptor M2>
5.92

>  <Muscarinic acetylcholine receptor M3>
6.07

>  <Muscarinic acetylcholine receptor M4>
6.06

>  <Muscarinic acetylcholine receptor M5>
5.8

>  <Norepinephrine transporter>
6.28

>  <Serotonin transporter>
6.41

$$$$
