436
  Marvin  02231216192D 0   1.00000     0.00000     0

 15 15  0  0  1  0  0  0  0  0999 V2000
    4.0349    1.0801    0.0000 I   0  0  0  0  0  0  0  0  0
    3.3204    0.6676    0.0000 C   0  0  0  0  0  0  0  0  0
    3.3204   -0.1574    0.0000 C   0  0  0  0  0  0  0  0  0
    2.6059   -0.5699    0.0000 C   0  0  0  0  0  0  0  0  0
    2.6059   -1.3949    0.0000 O   0  0  0  0  0  0  0  0  0
    1.8915   -1.8074    0.0000 C   0  0  0  0  0  0  0  0  0
    1.8915   -0.1574    0.0000 C   0  0  0  0  0  0  0  0  0
    1.8915    0.6676    0.0000 C   0  0  0  0  0  0  0  0  0
    2.6059    1.0801    0.0000 C   0  0  0  0  0  0  0  0  0
    2.6059    1.9051    0.0000 O   0  0  0  0  0  0  0  0  0
    1.8915    2.3176    0.0000 C   0  0  0  0  0  0  0  0  0
    1.1770   -0.5699    0.0000 C   0  0  0  0  0  0  0  0  0
    0.4625   -0.1574    0.0000 C   0  0  0  0  0  0  0  0  0
   -0.2519   -0.5699    0.0000 N   0  0  0  0  0  0  0  0  0
    0.4625    0.6676    0.0000 C   0  0  0  0  0  0  0  0  0
  1  2  1  0  0  0  0
  2  3  4  0  0  0  0
  2  9  4  0  0  0  0
  3  4  4  0  0  0  0
  4  5  1  0  0  0  0
  4  7  4  0  0  0  0
  5  6  1  0  0  0  0
  7  8  4  0  0  0  0
  7 12  1  0  0  0  0
  8  9  4  0  0  0  0
  9 10  1  0  0  0  0
 10 11  1  0  0  0  0
 12 13  1  0  0  0  0
 13 14  1  0  0  0  0
 13 15  1  0  0  0  0
M  END
>  <Name_Molregno>
436

>  <5-HT1A>
5.42

>  <5-HT1E>
5.53

>  <5-HT2A>
8.4

>  <5-HT2C>
8.28

>  <5-HT5>
6

$$$$
601
  Marvin  02231216192D 0   1.00000     0.00000     0

 24 27  0  0  1  0  0  0  0  0999 V2000
   -0.4352   -4.1263    0.0000 O   0  0  0  0  0  0  0  0  0
   -1.1491   -3.7129    0.0000 C   0  0  0  0  0  0  0  0  0
   -1.8641   -4.1246    0.0000 N   0  0  0  0  0  0  0  0  0
   -1.8651   -4.9496    0.0000 C   0  0  0  0  0  0  0  0  0
   -2.5801   -5.3612    0.0000 C   0  0  0  0  0  0  0  0  0
   -2.5781   -3.7112    0.0000 C   0  0  0  0  0  0  0  0  0
   -3.2930   -4.1229    0.0000 C   0  0  0  0  0  0  0  0  0
   -1.1482   -2.8879    0.0000 C   0  0  0  0  0  0  0  0  0
   -0.4332   -2.4763    0.0000 C   0  0  0  0  0  0  0  0  0
   -0.4322   -1.6513    0.0000 C   0  0  0  0  0  0  0  0  0
   -1.1462   -1.2379    0.0000 C   0  0  0  0  0  0  0  0  0
   -1.8611   -1.6496    0.0000 N   0  0  0  0  0  0  0  0  0
   -1.8621   -2.4746    0.0000 C   0  0  0  0  0  0  0  0  0
   -2.5751   -1.2362    0.0000 C   0  0  0  0  0  0  0  0  0
   -1.1447   -0.4138    0.0000 C   0  0  0  0  0  0  0  0  0
   -0.4322   -0.0013    0.0000 C   0  0  0  0  0  0  0  0  0
    0.2803   -0.4138    0.0000 C   0  0  0  0  0  0  0  0  0
    0.2803   -1.2388    0.0000 C   0  0  0  0  0  0  0  0  0
    0.9982   -1.6513    0.0000 C   0  0  0  0  0  0  0  0  0
    1.7107   -1.2388    0.0000 C   0  0  0  0  0  0  0  0  0
    1.7107   -0.4138    0.0000 C   0  0  0  0  0  0  0  0  0
    0.9982   -0.0013    0.0000 C   0  0  0  0  0  0  0  0  0
    0.6928    0.8558    0.0000 N   0  0  0  0  0  0  0  0  0
   -0.1322    0.8558    0.0000 C   0  0  0  0  0  0  0  0  0
  1  2  2  0  0  0  0
  2  3  1  0  0  0  0
  2  8  1  0  0  0  0
  3  4  1  0  0  0  0
  3  6  1  0  0  0  0
  4  5  1  0  0  0  0
  6  7  1  0  0  0  0
  8  9  1  0  0  0  0
  8 13  1  0  0  0  0
  9 10  2  0  0  0  0
 10 11  1  0  0  0  0
 10 18  1  0  0  0  0
 11 12  1  0  0  0  0
 11 15  1  0  0  0  0
 12 13  1  0  0  0  0
 12 14  1  0  0  0  0
 15 16  1  0  0  0  0
 16 17  4  0  0  0  0
 16 24  4  0  0  0  0
 17 18  4  0  0  0  0
 17 22  4  0  0  0  0
 18 19  4  0  0  0  0
 19 20  4  0  0  0  0
 20 21  4  0  0  0  0
 21 22  4  0  0  0  0
 22 23  4  0  0  0  0
 23 24  4  0  0  0  0
M  STY  1   1 DAT
M  SAL   1  1  23
M  SDT   1 MRV_IMPLICIT_H                                        
M  SDD   1     0.0000    0.0000    DR    ALL  0       0  
M  SED   1 IMPL_H1
M  END
>  <Name_Molregno>
601

>  <5-HT1A>
8.86

>  <5-HT1D>
7.85

>  <5-HT2A>
8.52

>  <5-HT2C>
8.15

>  <5-HT6>
8.64

$$$$
697
  Marvin  02231216192D 0   1.00000     0.00000     0

 13 15  0  0  0  0  0  0  0  0999 V2000
    0.0713   -0.5834    0.0000 N   0  0  0  0  0  0  0  0  0
    0.3263    0.2012    0.0000 C   0  0  0  0  0  0  0  0  0
    1.1332    0.3727    0.0000 C   0  0  0  0  0  0  0  0  0
    1.6853   -0.2404    0.0000 N   0  0  0  0  0  0  0  0  0
    1.4303   -1.0250    0.0000 C   0  0  0  0  0  0  0  0  0
    0.6234   -1.1965    0.0000 C   0  0  0  0  0  0  0  0  0
   -0.3412    0.6861    0.0000 C   0  0  0  0  0  0  0  0  0
   -1.0086    0.2012    0.0000 C   0  0  0  0  0  0  0  0  0
   -0.7537   -0.5834    0.0000 C   0  0  0  0  0  0  0  0  0
   -1.3057   -1.1965    0.0000 C   0  0  0  0  0  0  0  0  0
   -2.1127   -1.0250    0.0000 C   0  0  0  0  0  0  0  0  0
   -2.3676   -0.2404    0.0000 C   0  0  0  0  0  0  0  0  0
   -1.8156    0.3727    0.0000 C   0  0  0  0  0  0  0  0  0
  1  2  4  0  0  0  0
  1  6  1  0  0  0  0
  1  9  4  0  0  0  0
  2  3  1  0  0  0  0
  2  7  4  0  0  0  0
  3  4  1  0  0  0  0
  4  5  1  0  0  0  0
  5  6  1  0  0  0  0
  7  8  4  0  0  0  0
  8  9  4  0  0  0  0
  8 13  4  0  0  0  0
  9 10  4  0  0  0  0
 10 11  4  0  0  0  0
 11 12  4  0  0  0  0
 12 13  4  0  0  0  0
M  END
>  <Name_Molregno>
697

>  <5-HT2A>
6.09

$$$$
699
  Marvin  02231216192D 0   1.00000     0.00000     0

 15 17  0  0  0  0  0  0  0  0999 V2000
   -3.6040   -2.6270    0.0000 O   0  0  0  0  0  0  0  0  0
   -4.4110   -2.4555    0.0000 C   0  0  0  0  0  0  0  0  0
   -3.0520   -2.0140    0.0000 C   0  0  0  0  0  0  0  0  0
   -2.2450   -2.1855    0.0000 C   0  0  0  0  0  0  0  0  0
   -1.6930   -1.5724    0.0000 C   0  0  0  0  0  0  0  0  0
   -0.8680   -1.5724    0.0000 N   0  0  0  0  0  0  0  0  0
   -0.6131   -0.7878    0.0000 C   0  0  0  0  0  0  0  0  0
    0.1939   -0.6162    0.0000 C   0  0  0  0  0  0  0  0  0
    0.7459   -1.2293    0.0000 N   0  0  0  0  0  0  0  0  0
    0.4910   -2.0140    0.0000 C   0  0  0  0  0  0  0  0  0
   -0.3160   -2.1855    0.0000 C   0  0  0  0  0  0  0  0  0
   -1.2805   -0.3028    0.0000 C   0  0  0  0  0  0  0  0  0
   -1.9479   -0.7878    0.0000 C   0  0  0  0  0  0  0  0  0
   -2.7549   -0.6162    0.0000 C   0  0  0  0  0  0  0  0  0
   -3.3069   -1.2293    0.0000 C   0  0  0  0  0  0  0  0  0
  1  2  1  0  0  0  0
  1  3  1  0  0  0  0
  3  4  4  0  0  0  0
  3 15  4  0  0  0  0
  4  5  4  0  0  0  0
  5  6  4  0  0  0  0
  5 13  4  0  0  0  0
  6  7  4  0  0  0  0
  6 11  1  0  0  0  0
  7  8  1  0  0  0  0
  7 12  4  0  0  0  0
  8  9  1  0  0  0  0
  9 10  1  0  0  0  0
 10 11  1  0  0  0  0
 12 13  4  0  0  0  0
 13 14  4  0  0  0  0
 14 15  4  0  0  0  0
M  END
>  <Name_Molregno>
699

>  <5-HT2A>
5.59

$$$$
700
  Marvin  02231216192D 0   1.00000     0.00000     0

 15 17  0  0  0  0  0  0  0  0999 V2000
    4.7759   -0.0166    0.0000 O   0  0  0  0  0  0  0  0  0
    5.3279    0.5965    0.0000 C   0  0  0  0  0  0  0  0  0
    3.9689    0.1549    0.0000 C   0  0  0  0  0  0  0  0  0
    3.4169   -0.4582    0.0000 C   0  0  0  0  0  0  0  0  0
    2.6099   -0.2866    0.0000 C   0  0  0  0  0  0  0  0  0
    2.3550    0.4980    0.0000 C   0  0  0  0  0  0  0  0  0
    1.5300    0.4980    0.0000 N   0  0  0  0  0  0  0  0  0
    1.2750   -0.2866    0.0000 C   0  0  0  0  0  0  0  0  0
    0.4681   -0.4582    0.0000 C   0  0  0  0  0  0  0  0  0
   -0.0840    0.1549    0.0000 N   0  0  0  0  0  0  0  0  0
    0.1710    0.9396    0.0000 C   0  0  0  0  0  0  0  0  0
    0.9779    1.1111    0.0000 C   0  0  0  0  0  0  0  0  0
    1.9425   -0.7716    0.0000 C   0  0  0  0  0  0  0  0  0
    2.9070    1.1111    0.0000 C   0  0  0  0  0  0  0  0  0
    3.7140    0.9396    0.0000 C   0  0  0  0  0  0  0  0  0
  1  2  1  0  0  0  0
  1  3  1  0  0  0  0
  3  4  4  0  0  0  0
  3 15  4  0  0  0  0
  4  5  4  0  0  0  0
  5  6  4  0  0  0  0
  5 13  4  0  0  0  0
  6  7  4  0  0  0  0
  6 14  4  0  0  0  0
  7  8  4  0  0  0  0
  7 12  1  0  0  0  0
  8  9  1  0  0  0  0
  8 13  4  0  0  0  0
  9 10  1  0  0  0  0
 10 11  1  0  0  0  0
 11 12  1  0  0  0  0
 14 15  4  0  0  0  0
M  END
>  <Name_Molregno>
700

>  <5-HT2A>
5.63

$$$$
701
  Marvin  02231216192D 0   1.00000     0.00000     0

 13 15  0  0  0  0  0  0  0  0999 V2000
    0.0713   -0.5834    0.0000 N   0  0  0  0  0  0  0  0  0
    0.6234   -1.1965    0.0000 C   0  0  0  0  0  0  0  0  0
    1.4303   -1.0250    0.0000 C   0  0  0  0  0  0  0  0  0
    1.6853   -0.2404    0.0000 N   0  0  0  0  0  0  0  0  0
    1.1332    0.3727    0.0000 C   0  0  0  0  0  0  0  0  0
    0.3263    0.2012    0.0000 C   0  0  0  0  0  0  0  0  0
   -0.3412    0.6861    0.0000 N   0  0  0  0  0  0  0  0  0
   -1.0086    0.2012    0.0000 C   0  0  0  0  0  0  0  0  0
   -0.7537   -0.5834    0.0000 C   0  0  0  0  0  0  0  0  0
   -1.3057   -1.1965    0.0000 C   0  0  0  0  0  0  0  0  0
   -2.1127   -1.0250    0.0000 C   0  0  0  0  0  0  0  0  0
   -2.3676   -0.2404    0.0000 C   0  0  0  0  0  0  0  0  0
   -1.8156    0.3727    0.0000 C   0  0  0  0  0  0  0  0  0
  1  2  1  0  0  0  0
  1  6  4  0  0  0  0
  1  9  4  0  0  0  0
  2  3  1  0  0  0  0
  3  4  1  0  0  0  0
  4  5  1  0  0  0  0
  5  6  1  0  0  0  0
  6  7  4  0  0  0  0
  7  8  4  0  0  0  0
  8  9  4  0  0  0  0
  8 13  4  0  0  0  0
  9 10  4  0  0  0  0
 10 11  4  0  0  0  0
 11 12  4  0  0  0  0
 12 13  4  0  0  0  0
M  END
>  <Name_Molregno>
701

>  <5-HT2A>
5

$$$$
2207
  Marvin  02231216192D 0   1.00000     0.00000     0

 14 15  0  0  0  0  0  0  0  0999 V2000
    0.1571   -1.0631    0.0000 O   0  0  0  0  0  0  0  0  0
    0.8716   -0.6506    0.0000 C   0  0  0  0  0  0  0  0  0
   -0.5574   -0.6506    0.0000 C   0  0  0  0  0  0  0  0  0
   -1.2718   -1.0631    0.0000 C   0  0  0  0  0  0  0  0  0
   -1.9863   -0.6506    0.0000 C   0  0  0  0  0  0  0  0  0
   -1.9863    0.1744    0.0000 C   0  0  0  0  0  0  0  0  0
   -2.7709    0.4293    0.0000 N   0  0  0  0  0  0  0  0  0
   -3.2558   -0.2381    0.0000 C   0  0  0  0  0  0  0  0  0
   -2.7709   -0.9056    0.0000 C   0  0  0  0  0  0  0  0  0
   -3.0259   -1.6902    0.0000 C   0  0  0  0  0  0  0  0  0
   -3.8328   -1.8617    0.0000 C   0  0  0  0  0  0  0  0  0
   -4.0878   -2.6464    0.0000 N   0  0  0  0  0  0  0  0  0
   -1.2718    0.5869    0.0000 C   0  0  0  0  0  0  0  0  0
   -0.5574    0.1744    0.0000 C   0  0  0  0  0  0  0  0  0
  1  2  1  0  0  0  0
  1  3  1  0  0  0  0
  3  4  4  0  0  0  0
  3 14  4  0  0  0  0
  4  5  4  0  0  0  0
  5  6  4  0  0  0  0
  5  9  4  0  0  0  0
  6  7  4  0  0  0  0
  6 13  4  0  0  0  0
  7  8  4  0  0  0  0
  8  9  4  0  0  0  0
  9 10  1  0  0  0  0
 10 11  1  0  0  0  0
 11 12  1  0  0  0  0
 13 14  4  0  0  0  0
M  STY  1   1 DAT
M  SAL   1  1   7
M  SDT   1 MRV_IMPLICIT_H                                        
M  SDD   1     0.0000    0.0000    DR    ALL  0       0  
M  SED   1 IMPL_H1
M  END
>  <Name_Molregno>
2207

>  <5-HT1B>
8.15

>  <5-HT1D>
8.32

>  <5-HT1E>
5.5

>  <5-HT2A>
6.83

>  <5-HT2C>
7.28

>  <5-HT6>
7.39

>  <5-HT7>
8.7

$$$$
2232
  Marvin  02231216192D 0   1.00000     0.00000     0

 16 17  0  0  0  0  0  0  0  0999 V2000
    0.0484   -1.1205    0.0000 O   0  0  0  0  0  0  0  0  0
    0.7628   -0.7080    0.0000 C   0  0  0  0  0  0  0  0  0
   -0.6661   -0.7080    0.0000 C   0  0  0  0  0  0  0  0  0
   -1.3806   -1.1205    0.0000 C   0  0  0  0  0  0  0  0  0
   -2.0951   -0.7080    0.0000 C   0  0  0  0  0  0  0  0  0
   -2.0951    0.1170    0.0000 C   0  0  0  0  0  0  0  0  0
   -2.8797    0.3720    0.0000 N   0  0  0  0  0  0  0  0  0
   -3.3646   -0.2955    0.0000 C   0  0  0  0  0  0  0  0  0
   -2.8797   -0.9629    0.0000 C   0  0  0  0  0  0  0  0  0
   -3.1346   -1.7475    0.0000 C   0  0  0  0  0  0  0  0  0
   -2.5826   -2.3606    0.0000 C   0  0  0  0  0  0  0  0  0
   -2.8375   -3.1452    0.0000 N   0  0  0  0  0  0  0  0  0
   -2.2855   -3.7583    0.0000 C   0  0  0  0  0  0  0  0  0
   -3.6445   -3.3168    0.0000 C   0  0  0  0  0  0  0  0  0
   -1.3806    0.5295    0.0000 C   0  0  0  0  0  0  0  0  0
   -0.6661    0.1170    0.0000 C   0  0  0  0  0  0  0  0  0
  1  2  1  0  0  0  0
  1  3  1  0  0  0  0
  3  4  4  0  0  0  0
  3 16  4  0  0  0  0
  4  5  4  0  0  0  0
  5  6  4  0  0  0  0
  5  9  4  0  0  0  0
  6  7  4  0  0  0  0
  6 15  4  0  0  0  0
  7  8  4  0  0  0  0
  8  9  4  0  0  0  0
  9 10  1  0  0  0  0
 10 11  1  0  0  0  0
 11 12  1  0  0  0  0
 12 13  1  0  0  0  0
 12 14  1  0  0  0  0
 15 16  4  0  0  0  0
M  STY  1   1 DAT
M  SAL   1  1   7
M  SDT   1 MRV_IMPLICIT_H                                        
M  SDD   1     0.0000    0.0000    DR    ALL  0       0  
M  SED   1 IMPL_H1
M  END
>  <Name_Molregno>
2232

>  <5-HT1B>
7.63

>  <5-HT1E>
6.28

>  <5-HT2A>
6.86

>  <5-HT2C>
7.38

>  <5-HT6>
7.5

$$$$
2246
  Marvin  02231216192D 0   1.00000     0.00000     0

 23 26  0  0  0  0  0  0  0  0999 V2000
    0.0748    1.8640    0.0000 Cl  0  0  0  0  0  0  0  0  0
    0.8818    1.6925    0.0000 C   0  0  0  0  0  0  0  0  0
    1.4339    2.3056    0.0000 C   0  0  0  0  0  0  0  0  0
    2.2408    2.1340    0.0000 C   0  0  0  0  0  0  0  0  0
    2.4958    1.3494    0.0000 C   0  0  0  0  0  0  0  0  0
    3.3027    1.1779    0.0000 N   0  0  0  0  0  0  0  0  0
    3.8548    1.7910    0.0000 C   0  0  0  0  0  0  0  0  0
    4.6617    1.6194    0.0000 C   0  0  0  0  0  0  0  0  0
    4.9167    0.8348    0.0000 N   0  0  0  0  0  0  0  0  0
    4.3646    0.2217    0.0000 C   0  0  0  0  0  0  0  0  0
    3.5577    0.3933    0.0000 C   0  0  0  0  0  0  0  0  0
    5.7237    0.6633    0.0000 C   0  0  0  0  0  0  0  0  0
    5.9786   -0.1213    0.0000 C   0  0  0  0  0  0  0  0  0
    6.7632   -0.3763    0.0000 C   0  0  0  0  0  0  0  0  0
    7.4777    0.0362    0.0000 C   0  0  0  0  0  0  0  0  0
    8.1922   -0.3763    0.0000 C   0  0  0  0  0  0  0  0  0
    8.1922   -1.2013    0.0000 C   0  0  0  0  0  0  0  0  0
    7.4777   -1.6138    0.0000 N   0  0  0  0  0  0  0  0  0
    6.7632   -1.2013    0.0000 C   0  0  0  0  0  0  0  0  0
    5.9786   -1.4562    0.0000 N   0  0  0  0  0  0  0  0  0
    5.4937   -0.7888    0.0000 C   0  0  0  0  0  0  0  0  0
    1.9437    0.7363    0.0000 C   0  0  0  0  0  0  0  0  0
    1.1368    0.9078    0.0000 C   0  0  0  0  0  0  0  0  0
  1  2  1  0  0  0  0
  2  3  4  0  0  0  0
  2 23  4  0  0  0  0
  3  4  4  0  0  0  0
  4  5  4  0  0  0  0
  5  6  1  0  0  0  0
  5 22  4  0  0  0  0
  6  7  1  0  0  0  0
  6 11  1  0  0  0  0
  7  8  1  0  0  0  0
  8  9  1  0  0  0  0
  9 10  1  0  0  0  0
  9 12  1  0  0  0  0
 10 11  1  0  0  0  0
 12 13  1  0  0  0  0
 13 14  4  0  0  0  0
 13 21  4  0  0  0  0
 14 15  4  0  0  0  0
 14 19  4  0  0  0  0
 15 16  4  0  0  0  0
 16 17  4  0  0  0  0
 17 18  4  0  0  0  0
 18 19  4  0  0  0  0
 19 20  4  0  0  0  0
 20 21  4  0  0  0  0
 22 23  4  0  0  0  0
M  STY  1   1 DAT
M  SAL   1  1  20
M  SDT   1 MRV_IMPLICIT_H                                        
M  SDD   1     0.0000    0.0000    DR    ALL  0       0  
M  SED   1 IMPL_H1
M  END
>  <Name_Molregno>
2246

>  <5-HT1A>
5.18

>  <5-HT1B>
5

>  <5-HT1D>
5

>  <5-HT1E>
5

>  <5-HT2A>
6.17

>  <5-HT2C>
5.5

>  <5-HT5>
5

>  <5-HT6>
5.78

>  <5-HT7>
6.65

>  <DOPAMINE D2>
5.31

>  <DOPAMINE D3>
5.16

>  <DOPAMINE D4>
9.34

$$$$
4259
  Marvin  02231216192D 0   1.00000     0.00000     0

 27 31  0  0  1  0  0  0  0  0999 V2000
   -0.2544   -2.3296    0.0000 O   0  0  0  0  0  0  0  0  0
    0.3866   -1.8102    0.0000 C   0  0  0  0  0  0  0  0  0
    0.8114   -1.1029    0.0000 C   0  0  0  0  0  0  0  0  0
    1.6362   -1.1171    0.0000 C   0  0  0  0  0  0  0  0  0
    2.0364   -1.8386    0.0000 N   0  0  0  0  0  0  0  0  0
    1.6117   -2.5458    0.0000 C   0  0  0  0  0  0  0  0  0
    0.7868   -2.5317    0.0000 C   0  0  0  0  0  0  0  0  0
    2.8613   -1.8527    0.0000 C   0  0  0  0  0  0  0  0  0
    3.1740   -1.1970    0.0000 C   0  0  0  0  0  0  0  0  0
    2.8858   -0.4240    0.0000 C   0  0  0  0  0  0  0  0  0
    2.0609   -0.4098    0.0000 C   0  0  0  0  0  0  0  0  0
    1.6608    0.3116    0.0000 C   0  0  0  0  0  0  0  0  0
    2.0855    1.0189    0.0000 C   0  0  0  0  0  0  0  0  0
    2.9104    1.0047    0.0000 C   0  0  0  0  0  0  0  0  0
    3.3105    0.2833    0.0000 C   0  0  0  0  0  0  0  0  0
    4.1283    0.3922    0.0000 C   0  0  0  0  0  0  0  0  0
    4.7234   -0.1792    0.0000 C   0  0  0  0  0  0  0  0  0
    4.6476   -1.0008    0.0000 C   0  0  0  0  0  0  0  0  0
    3.9581   -1.4537    0.0000 C   0  0  0  0  0  0  0  0  0
    4.0056   -2.2773    0.0000 C   0  0  0  0  0  0  0  0  0
    4.7426   -2.6480    0.0000 C   0  0  0  0  0  0  0  0  0
    5.4321   -2.1951    0.0000 C   0  0  0  0  0  0  0  0  0
    5.3846   -1.3714    0.0000 C   0  0  0  0  0  0  0  0  0
   -0.2361   -1.2691    0.0000 C   0  0  0  0  0  0  0  0  0
   -0.8589   -0.7281    0.0000 C   0  0  0  0  0  0  0  0  0
    0.3049   -0.6464    0.0000 C   0  0  0  0  0  0  0  0  0
   -0.7772   -1.8919    0.0000 C   0  0  0  0  0  0  0  0  0
  1  2  1  0  0  0  0
  2  3  1  0  0  0  0
  2  7  1  0  0  0  0
  2 24  1  0  0  0  0
  3  4  1  0  0  0  0
  4  5  1  0  0  0  0
  4 11  1  0  0  0  0
  5  6  1  0  0  0  0
  5  8  1  0  0  0  0
  6  7  1  0  0  0  0
  8  9  1  0  0  0  0
  9 10  1  0  0  0  0
  9 19  1  0  0  0  0
 10 11  4  0  0  0  0
 10 15  4  0  0  0  0
 11 12  4  0  0  0  0
 12 13  4  0  0  0  0
 13 14  4  0  0  0  0
 14 15  4  0  0  0  0
 15 16  1  0  0  0  0
 16 17  1  0  0  0  0
 17 18  1  0  0  0  0
 18 19  4  0  0  0  0
 18 23  4  0  0  0  0
 19 20  4  0  0  0  0
 20 21  4  0  0  0  0
 21 22  4  0  0  0  0
 22 23  4  0  0  0  0
 24 25  1  0  0  0  0
 24 26  1  0  0  0  0
 24 27  1  0  0  0  0
M  END
>  <Name_Molregno>
4259

>  <5-HT1A>
6.08

>  <5-HT2A>
8.67

>  <DOPAMINE D1>
8.63

>  <DOPAMINE D2>
8.72

>  <DOPAMINE D3>
8.22

>  <DOPAMINE D4>
7.2

>  <DOPAMINE D5>
7.57

>  <HISTAMINE H1>
6.55

$$$$
4778
  Marvin  02231216192D 0   1.00000     0.00000     0

 20 22  0  0  1  0  0  0  0  0999 V2000
    0.1938   -0.4763    0.0000 Cl  0  0  0  0  0  0  0  0  0
    0.9083   -0.0638    0.0000 C   0  0  0  0  0  0  0  0  0
    1.6227   -0.4763    0.0000 C   0  0  0  0  0  0  0  0  0
    2.3372   -0.0638    0.0000 C   0  0  0  0  0  0  0  0  0
    2.3372    0.7612    0.0000 C   0  0  0  0  0  0  0  0  0
    1.6227    1.1737    0.0000 C   0  0  0  0  0  0  0  0  0
    0.9083    0.7612    0.0000 C   0  0  0  0  0  0  0  0  0
    0.1938    1.1737    0.0000 O   0  0  0  0  0  0  0  0  0
    2.9822    1.2756    0.0000 C   0  0  0  0  0  0  0  0  0
    3.7865    1.0920    0.0000 C   0  0  0  0  0  0  0  0  0
    4.1445    0.3487    0.0000 N   0  0  0  0  0  0  0  0  0
    3.7865   -0.3946    0.0000 C   0  0  0  0  0  0  0  0  0
    2.9822   -0.5782    0.0000 C   0  0  0  0  0  0  0  0  0
    4.9695    0.3487    0.0000 C   0  0  0  0  0  0  0  0  0
    2.7986    2.0799    0.0000 C   0  0  0  0  0  0  0  0  0
    2.0103    2.3230    0.0000 C   0  0  0  0  0  0  0  0  0
    1.8267    3.1274    0.0000 C   0  0  0  0  0  0  0  0  0
    2.4315    3.6885    0.0000 C   0  0  0  0  0  0  0  0  0
    3.2198    3.4453    0.0000 C   0  0  0  0  0  0  0  0  0
    3.4034    2.6410    0.0000 C   0  0  0  0  0  0  0  0  0
  1  2  1  0  0  0  0
  2  3  4  0  0  0  0
  2  7  4  0  0  0  0
  3  4  4  0  0  0  0
  4  5  4  0  0  0  0
  4 13  1  0  0  0  0
  5  6  4  0  0  0  0
  5  9  1  0  0  0  0
  6  7  4  0  0  0  0
  7  8  1  0  0  0  0
  9 10  1  0  0  0  0
  9 15  1  0  0  0  0
 10 11  1  0  0  0  0
 11 12  1  0  0  0  0
 11 14  1  0  0  0  0
 12 13  1  0  0  0  0
 15 16  4  0  0  0  0
 15 20  4  0  0  0  0
 16 17  4  0  0  0  0
 17 18  4  0  0  0  0
 18 19  4  0  0  0  0
 19 20  4  0  0  0  0
M  END
>  <Name_Molregno>
4778

>  <5-HT1A>
6.18

>  <5-HT2A>
7.88

>  <5-HT2C>
7.39

>  <5-HT3>
5

>  <DOPAMINE D1>
8.84

>  <DOPAMINE D2>
6.09

>  <DOPAMINE D3>
5.65

>  <DOPAMINE D4>
5.51

>  <DOPAMINE D5>
8.49

>  <HISTAMINE H1>
7

$$$$
6291
  Marvin  02231216192D 0   1.00000     0.00000     0

 26 29  0  0  1  0  0  0  0  0999 V2000
   -4.2684    3.4148    0.0000 O   0  0  0  0  0  0  0  0  0
   -4.8815    2.8628    0.0000 C   0  0  0  0  0  0  0  0  0
   -4.8815    2.0378    0.0000 C   0  0  0  0  0  0  0  0  0
   -5.5960    1.6253    0.0000 C   0  0  0  0  0  0  0  0  0
   -6.3104    2.0378    0.0000 C   0  0  0  0  0  0  0  0  0
   -6.3104    2.8628    0.0000 C   0  0  0  0  0  0  0  0  0
   -5.5960    3.2753    0.0000 C   0  0  0  0  0  0  0  0  0
   -5.4244    4.0823    0.0000 C   0  0  0  0  0  0  0  0  0
   -4.6039    4.1685    0.0000 C   0  0  0  0  0  0  0  0  0
   -5.5960    0.8003    0.0000 C   0  0  0  0  0  0  0  0  0
   -4.8815    0.3878    0.0000 C   0  0  0  0  0  0  0  0  0
   -4.8815   -0.4372    0.0000 N   0  0  0  0  0  0  0  0  0
   -4.1670   -0.8497    0.0000 C   0  0  0  0  0  0  0  0  0
   -4.1670   -1.6747    0.0000 C   0  0  0  0  0  0  0  0  0
   -4.8815   -2.0872    0.0000 C   0  0  0  0  0  0  0  0  0
   -4.8815   -2.9122    0.0000 C   0  0  0  0  0  0  0  0  0
   -4.1670   -3.3247    0.0000 C   0  0  0  0  0  0  0  0  0
   -3.4525   -2.9122    0.0000 C   0  0  0  0  0  0  0  0  0
   -3.4525   -2.0872    0.0000 C   0  0  0  0  0  0  0  0  0
   -2.7381   -1.6747    0.0000 C   0  0  0  0  0  0  0  0  0
   -2.0236   -2.0872    0.0000 C   0  0  0  0  0  0  0  0  0
   -2.0236   -2.9122    0.0000 C   0  0  0  0  0  0  0  0  0
   -2.7381   -3.3247    0.0000 C   0  0  0  0  0  0  0  0  0
   -2.7381   -4.1497    0.0000 O   0  0  0  0  0  0  0  0  0
   -2.0236   -4.5622    0.0000 C   0  0  0  0  0  0  0  0  0
   -5.5960   -0.8497    0.0000 C   0  0  0  0  0  0  0  0  0
  1  2  4  0  0  0  0
  1  9  4  0  0  0  0
  2  3  4  0  0  0  0
  2  7  4  0  0  0  0
  3  4  4  0  0  0  0
  4  5  4  0  0  0  0
  4 10  1  0  0  0  0
  5  6  4  0  0  0  0
  6  7  4  0  0  0  0
  7  8  4  0  0  0  0
  8  9  4  0  0  0  0
 10 11  1  0  0  0  0
 11 12  1  0  0  0  0
 12 13  1  0  0  0  0
 12 26  1  0  0  0  0
 13 14  1  0  0  0  0
 14 15  1  0  0  0  0
 14 19  1  0  0  0  0
 15 16  1  0  0  0  0
 16 17  1  0  0  0  0
 17 18  1  0  0  0  0
 18 19  4  0  0  0  0
 18 23  4  0  0  0  0
 19 20  4  0  0  0  0
 20 21  4  0  0  0  0
 21 22  4  0  0  0  0
 22 23  4  0  0  0  0
 23 24  1  0  0  0  0
 24 25  1  0  0  0  0
M  END
>  <Name_Molregno>
6291

>  <5-HT1A>
7.35

>  <5-HT2A>
6

>  <5-HT2C>
6

>  <Alpha-2A>
8.6

>  <Alpha-2B>
7.96

>  <Alpha-2C>
8.68

>  <DOPAMINE D4>
6.63

>  <HISTAMINE H1>
6

>  <Serotonin transporter>
8.4

$$$$
6593
  Marvin  02231216192D 0   1.00000     0.00000     0

 26 30  0  0  1  0  0  0  0  0999 V2000
    6.3424    1.1120    0.0000 O   0  0  0  0  0  0  0  0  0
    5.8040    0.4869    0.0000 C   0  0  0  0  0  0  0  0  0
    6.0761   -0.2920    0.0000 C   0  0  0  0  0  0  0  0  0
    5.5377   -0.9170    0.0000 C   0  0  0  0  0  0  0  0  0
    4.7272   -0.7633    0.0000 C   0  0  0  0  0  0  0  0  0
    4.4550    0.0155    0.0000 C   0  0  0  0  0  0  0  0  0
    3.6445    0.1692    0.0000 C   0  0  0  0  0  0  0  0  0
    3.1061   -0.4559    0.0000 C   0  0  0  0  0  0  0  0  0
    3.3782   -1.2347    0.0000 N   0  0  0  0  0  0  0  0  0
    4.1888   -1.3884    0.0000 C   0  0  0  0  0  0  0  0  0
    2.8398   -1.8598    0.0000 C   0  0  0  0  0  0  0  0  0
    2.0292   -1.7061    0.0000 C   0  0  0  0  0  0  0  0  0
    1.7571   -0.9272    0.0000 C   0  0  0  0  0  0  0  0  0
    2.2955   -0.3021    0.0000 C   0  0  0  0  0  0  0  0  0
    1.8674    0.4031    0.0000 N   0  0  0  0  0  0  0  0  0
    1.0644    0.2138    0.0000 C   0  0  0  0  0  0  0  0  0
    0.9962   -0.6083    0.0000 C   0  0  0  0  0  0  0  0  0
    0.2501   -0.9604    0.0000 C   0  0  0  0  0  0  0  0  0
   -0.4278   -0.4903    0.0000 C   0  0  0  0  0  0  0  0  0
   -0.3597    0.3319    0.0000 C   0  0  0  0  0  0  0  0  0
    0.3864    0.6840    0.0000 C   0  0  0  0  0  0  0  0  0
    4.9934    0.6406    0.0000 C   0  0  0  0  0  0  0  0  0
    4.7213    1.4194    0.0000 C   0  0  0  0  0  0  0  0  0
    5.2597    2.0445    0.0000 O   0  0  0  0  0  0  0  0  0
    4.9875    2.8233    0.0000 C   0  0  0  0  0  0  0  0  0
    3.9107    1.5731    0.0000 O   0  0  0  0  0  0  0  0  0
  1  2  1  0  0  0  0
  2  3  1  0  0  0  0
  2 22  1  0  0  0  0
  3  4  1  0  0  0  0
  4  5  1  0  0  0  0
  5  6  1  0  0  0  0
  5 10  1  0  0  0  0
  6  7  1  0  0  0  0
  6 22  1  0  0  0  0
  7  8  1  0  0  0  0
  8  9  1  0  0  0  0
  8 14  1  0  0  0  0
  9 10  1  0  0  0  0
  9 11  1  0  0  0  0
 11 12  1  0  0  0  0
 12 13  1  0  0  0  0
 13 14  4  0  0  0  0
 13 17  4  0  0  0  0
 14 15  4  0  0  0  0
 15 16  4  0  0  0  0
 16 17  4  0  0  0  0
 16 21  4  0  0  0  0
 17 18  4  0  0  0  0
 18 19  4  0  0  0  0
 19 20  4  0  0  0  0
 20 21  4  0  0  0  0
 22 23  1  0  0  0  0
 23 24  1  0  0  0  0
 23 26  2  0  0  0  0
 24 25  1  0  0  0  0
M  STY  1   1 DAT
M  SAL   1  1  15
M  SDT   1 MRV_IMPLICIT_H                                        
M  SDD   1     0.0000    0.0000    DR    ALL  0       0  
M  SED   1 IMPL_H1
M  END
>  <Name_Molregno>
6593

>  <5-HT1A>
6.3

>  <5-HT1B>
7.45

>  <5-HT1D>
7.09

>  <5-HT1E>
5.75

>  <5-HT2A>
5.66

>  <5-HT2C>
5.49

>  <5-HT7>
5.55

>  <Alpha-1A>
6.32

>  <Alpha-1B>
6.42

>  <Alpha-2A>
8.74

>  <Alpha-2B>
8.53

>  <Alpha-2C>
9.21

>  <DOPAMINE D1>
5

>  <DOPAMINE D2>
6.48

>  <DOPAMINE D3>
5.5

>  <Serotonin transporter>
6

$$$$
7644
  Marvin  02231216192D 0   1.00000     0.00000     0

 16 17  0  0  0  0  0  0  0  0999 V2000
    0.2350    2.3834    0.0000 N   0  0  0  0  0  0  0  0  0
    0.2350    1.5584    0.0000 C   0  0  0  0  0  0  0  0  0
    0.9494    1.1459    0.0000 C   0  0  0  0  0  0  0  0  0
    0.9494    0.3209    0.0000 C   0  0  0  0  0  0  0  0  0
    1.6639   -0.0916    0.0000 C   0  0  0  0  0  0  0  0  0
    1.6639   -0.9166    0.0000 C   0  0  0  0  0  0  0  0  0
    0.9494   -1.3291    0.0000 C   0  0  0  0  0  0  0  0  0
    0.2350   -0.9166    0.0000 C   0  0  0  0  0  0  0  0  0
    0.2350   -0.0916    0.0000 C   0  0  0  0  0  0  0  0  0
    1.6639    1.5584    0.0000 C   0  0  0  0  0  0  0  0  0
    1.6639    2.3834    0.0000 C   0  0  0  0  0  0  0  0  0
    2.3784    2.7959    0.0000 C   0  0  0  0  0  0  0  0  0
    3.0929    2.3834    0.0000 C   0  0  0  0  0  0  0  0  0
    3.0929    1.5584    0.0000 C   0  0  0  0  0  0  0  0  0
    2.3784    1.1459    0.0000 C   0  0  0  0  0  0  0  0  0
   -0.4795    2.7959    0.0000 C   0  0  0  0  0  0  0  0  0
  1  2  1  0  0  0  0
  1 16  1  0  0  0  0
  2  3  1  0  0  0  0
  3  4  1  0  0  0  0
  3 10  1  0  0  0  0
  4  5  4  0  0  0  0
  4  9  4  0  0  0  0
  5  6  4  0  0  0  0
  6  7  4  0  0  0  0
  7  8  4  0  0  0  0
  8  9  4  0  0  0  0
 10 11  4  0  0  0  0
 10 15  4  0  0  0  0
 11 12  4  0  0  0  0
 12 13  4  0  0  0  0
 13 14  4  0  0  0  0
 14 15  4  0  0  0  0
M  END
>  <Name_Molregno>
7644

>  <5-HT2A>
5

>  <HISTAMINE H1>
5

$$$$
7646
  Marvin  02231216192D 0   1.00000     0.00000     0

 15 16  0  0  0  0  0  0  0  0999 V2000
    0.2254    2.6215    0.0000 N   0  0  0  0  0  0  0  0  0
    0.2254    1.7965    0.0000 C   0  0  0  0  0  0  0  0  0
    0.9399    1.3840    0.0000 C   0  0  0  0  0  0  0  0  0
    0.9399    0.5590    0.0000 C   0  0  0  0  0  0  0  0  0
    1.6543    0.1465    0.0000 C   0  0  0  0  0  0  0  0  0
    1.6543   -0.6785    0.0000 C   0  0  0  0  0  0  0  0  0
    0.9399   -1.0910    0.0000 C   0  0  0  0  0  0  0  0  0
    0.2254   -0.6785    0.0000 C   0  0  0  0  0  0  0  0  0
    0.2254    0.1465    0.0000 C   0  0  0  0  0  0  0  0  0
    1.6543    1.7965    0.0000 C   0  0  0  0  0  0  0  0  0
    1.6543    2.6215    0.0000 C   0  0  0  0  0  0  0  0  0
    2.3688    3.0340    0.0000 C   0  0  0  0  0  0  0  0  0
    3.0833    2.6215    0.0000 C   0  0  0  0  0  0  0  0  0
    3.0833    1.7965    0.0000 C   0  0  0  0  0  0  0  0  0
    2.3688    1.3840    0.0000 C   0  0  0  0  0  0  0  0  0
  1  2  1  0  0  0  0
  2  3  1  0  0  0  0
  3  4  1  0  0  0  0
  3 10  1  0  0  0  0
  4  5  4  0  0  0  0
  4  9  4  0  0  0  0
  5  6  4  0  0  0  0
  6  7  4  0  0  0  0
  7  8  4  0  0  0  0
  8  9  4  0  0  0  0
 10 11  4  0  0  0  0
 10 15  4  0  0  0  0
 11 12  4  0  0  0  0
 12 13  4  0  0  0  0
 13 14  4  0  0  0  0
 14 15  4  0  0  0  0
M  END
>  <Name_Molregno>
7646

>  <5-HT2A>
5.34

>  <HISTAMINE H1>
5

$$$$
7650
  Marvin  02231216192D 0   1.00000     0.00000     0

 17 18  0  0  0  0  0  0  0  0999 V2000
    0.1499    2.2664    0.0000 N   0  0  0  0  0  0  0  0  0
    0.1499    1.4414    0.0000 C   0  0  0  0  0  0  0  0  0
    0.8644    1.0289    0.0000 C   0  0  0  0  0  0  0  0  0
    0.8644    0.2039    0.0000 C   0  0  0  0  0  0  0  0  0
    1.5789   -0.2086    0.0000 C   0  0  0  0  0  0  0  0  0
    1.5789   -1.0336    0.0000 C   0  0  0  0  0  0  0  0  0
    0.8644   -1.4461    0.0000 C   0  0  0  0  0  0  0  0  0
    0.1499   -1.0336    0.0000 C   0  0  0  0  0  0  0  0  0
    0.1499   -0.2086    0.0000 C   0  0  0  0  0  0  0  0  0
    1.5789    1.4414    0.0000 C   0  0  0  0  0  0  0  0  0
    1.5789    2.2664    0.0000 C   0  0  0  0  0  0  0  0  0
    2.2934    2.6789    0.0000 C   0  0  0  0  0  0  0  0  0
    3.0078    2.2664    0.0000 C   0  0  0  0  0  0  0  0  0
    3.0078    1.4414    0.0000 C   0  0  0  0  0  0  0  0  0
    2.2934    1.0289    0.0000 C   0  0  0  0  0  0  0  0  0
   -0.5645    2.6789    0.0000 C   0  0  0  0  0  0  0  0  0
    0.8644    2.6789    0.0000 C   0  0  0  0  0  0  0  0  0
  1  2  1  0  0  0  0
  1 16  1  0  0  0  0
  1 17  1  0  0  0  0
  2  3  1  0  0  0  0
  3  4  1  0  0  0  0
  3 10  1  0  0  0  0
  4  5  4  0  0  0  0
  4  9  4  0  0  0  0
  5  6  4  0  0  0  0
  6  7  4  0  0  0  0
  7  8  4  0  0  0  0
  8  9  4  0  0  0  0
 10 11  4  0  0  0  0
 10 15  4  0  0  0  0
 11 12  4  0  0  0  0
 12 13  4  0  0  0  0
 13 14  4  0  0  0  0
 14 15  4  0  0  0  0
M  END
>  <Name_Molregno>
7650

>  <5-HT2A>
5.13

>  <HISTAMINE H1>
5.29

$$$$
10956
  Marvin  02231216192D 0   1.00000     0.00000     0

 24 26  0  0  1  0  0  0  0  0999 V2000
    0.1506    0.0052    0.0000 S   0  0  0  0  0  0  0  0  0
    0.9756    0.0052    0.0000 O   0  0  0  0  0  0  0  0  0
   -0.6744    0.0052    0.0000 O   0  0  0  0  0  0  0  0  0
    0.1506   -0.8198    0.0000 N   0  0  0  0  0  0  0  0  0
    0.8180   -1.3047    0.0000 C   0  0  0  0  0  0  0  0  0
    0.5631   -2.0893    0.0000 C   0  0  0  0  0  0  0  0  0
   -0.2619   -2.0893    0.0000 C   0  0  0  0  0  0  0  0  0
   -0.5168   -1.3047    0.0000 C   0  0  0  0  0  0  0  0  0
   -1.3015   -1.0498    0.0000 C   0  0  0  0  0  0  0  0  0
   -1.9146   -1.6018    0.0000 C   0  0  0  0  0  0  0  0  0
   -2.6992   -1.3469    0.0000 N   0  0  0  0  0  0  0  0  0
   -3.3123   -1.8989    0.0000 C   0  0  0  0  0  0  0  0  0
   -4.0969   -1.6440    0.0000 C   0  0  0  0  0  0  0  0  0
   -4.2684   -0.8370    0.0000 C   0  0  0  0  0  0  0  0  0
   -3.6553   -0.2850    0.0000 C   0  0  0  0  0  0  0  0  0
   -2.8707   -0.5399    0.0000 C   0  0  0  0  0  0  0  0  0
   -5.0530   -0.5821    0.0000 C   0  0  0  0  0  0  0  0  0
    0.1506    0.8302    0.0000 C   0  0  0  0  0  0  0  0  0
   -0.5639    1.2427    0.0000 C   0  0  0  0  0  0  0  0  0
   -0.5639    2.0677    0.0000 C   0  0  0  0  0  0  0  0  0
    0.1506    2.4802    0.0000 C   0  0  0  0  0  0  0  0  0
    0.8651    2.0677    0.0000 C   0  0  0  0  0  0  0  0  0
    0.8651    1.2427    0.0000 C   0  0  0  0  0  0  0  0  0
   -1.2783    2.4802    0.0000 C   0  0  0  0  0  0  0  0  0
  1  2  2  0  0  0  0
  1  3  2  0  0  0  0
  1  4  1  0  0  0  0
  1 18  1  0  0  0  0
  4  5  1  0  0  0  0
  4  8  1  0  0  0  0
  5  6  1  0  0  0  0
  6  7  1  0  0  0  0
  7  8  1  0  0  0  0
  8  9  1  0  0  0  0
  9 10  1  0  0  0  0
 10 11  1  0  0  0  0
 11 12  1  0  0  0  0
 11 16  1  0  0  0  0
 12 13  1  0  0  0  0
 13 14  1  0  0  0  0
 14 15  1  0  0  0  0
 14 17  1  0  0  0  0
 15 16  1  0  0  0  0
 18 19  4  0  0  0  0
 18 23  4  0  0  0  0
 19 20  4  0  0  0  0
 20 21  4  0  0  0  0
 20 24  1  0  0  0  0
 21 22  4  0  0  0  0
 22 23  4  0  0  0  0
M  END
>  <Name_Molregno>
10956

>  <5-HT2A>
5.3

>  <5-HT7>
8.52

$$$$
14101
  Marvin  02231216192D 0   1.00000     0.00000     0

 24 26  0  0  0  0  0  0  0  0999 V2000
   -0.5960   -1.4297    0.0000 S   0  0  0  0  0  0  0  0  0
    0.1185   -1.0172    0.0000 C   0  0  0  0  0  0  0  0  0
   -1.3104   -1.0172    0.0000 C   0  0  0  0  0  0  0  0  0
   -2.0249   -1.4297    0.0000 C   0  0  0  0  0  0  0  0  0
   -2.7394   -1.0172    0.0000 C   0  0  0  0  0  0  0  0  0
   -3.5240   -1.2721    0.0000 C   0  0  0  0  0  0  0  0  0
   -4.0089   -0.6047    0.0000 C   0  0  0  0  0  0  0  0  0
   -3.5240    0.0627    0.0000 N   0  0  0  0  0  0  0  0  0
   -2.7394   -0.1922    0.0000 C   0  0  0  0  0  0  0  0  0
   -2.0249    0.2203    0.0000 C   0  0  0  0  0  0  0  0  0
   -1.3104   -0.1922    0.0000 C   0  0  0  0  0  0  0  0  0
   -0.5960    0.2203    0.0000 C   0  0  0  0  0  0  0  0  0
    0.1185    0.6328    0.0000 F   0  0  0  0  0  0  0  0  0
   -1.0085    0.9348    0.0000 F   0  0  0  0  0  0  0  0  0
   -0.1835   -0.4942    0.0000 F   0  0  0  0  0  0  0  0  0
   -3.7789    0.8474    0.0000 C   0  0  0  0  0  0  0  0  0
   -3.2269    1.4604    0.0000 O   0  0  0  0  0  0  0  0  0
   -4.5859    1.0189    0.0000 N   0  0  0  0  0  0  0  0  0
   -4.8409    1.8035    0.0000 C   0  0  0  0  0  0  0  0  0
   -5.6478    1.9750    0.0000 C   0  0  0  0  0  0  0  0  0
   -5.9028    2.7597    0.0000 C   0  0  0  0  0  0  0  0  0
   -5.3507    3.3727    0.0000 C   0  0  0  0  0  0  0  0  0
   -4.5438    3.2012    0.0000 N   0  0  0  0  0  0  0  0  0
   -4.2888    2.4166    0.0000 C   0  0  0  0  0  0  0  0  0
  1  2  1  0  0  0  0
  1  3  1  0  0  0  0
  3  4  4  0  0  0  0
  3 11  4  0  0  0  0
  4  5  4  0  0  0  0
  5  6  1  0  0  0  0
  5  9  4  0  0  0  0
  6  7  1  0  0  0  0
  7  8  1  0  0  0  0
  8  9  1  0  0  0  0
  8 16  1  0  0  0  0
  9 10  4  0  0  0  0
 10 11  4  0  0  0  0
 11 12  1  0  0  0  0
 12 13  1  0  0  0  0
 12 14  1  0  0  0  0
 12 15  1  0  0  0  0
 16 17  2  0  0  0  0
 16 18  1  0  0  0  0
 18 19  1  0  0  0  0
 19 20  4  0  0  0  0
 19 24  4  0  0  0  0
 20 21  4  0  0  0  0
 21 22  4  0  0  0  0
 22 23  4  0  0  0  0
 23 24  4  0  0  0  0
M  END
>  <Name_Molregno>
14101

>  <5-HT2A>
6.33

>  <5-HT2C>
8.63

$$$$
14131
  Marvin  02231216192D 0   1.00000     0.00000     0

 28 31  0  0  0  0  0  0  0  0999 V2000
   -0.8204    1.1360    0.0000 Cl  0  0  0  0  0  0  0  0  0
   -1.5349    1.5485    0.0000 C   0  0  0  0  0  0  0  0  0
   -2.2494    1.1360    0.0000 C   0  0  0  0  0  0  0  0  0
   -2.9638    1.5485    0.0000 C   0  0  0  0  0  0  0  0  0
   -3.7485    1.2936    0.0000 N   0  0  0  0  0  0  0  0  0
   -4.2334    1.9610    0.0000 C   0  0  0  0  0  0  0  0  0
   -3.7485    2.6284    0.0000 C   0  0  0  0  0  0  0  0  0
   -2.9638    2.3735    0.0000 C   0  0  0  0  0  0  0  0  0
   -2.2494    2.7860    0.0000 C   0  0  0  0  0  0  0  0  0
   -1.5349    2.3735    0.0000 C   0  0  0  0  0  0  0  0  0
   -0.8204    2.7860    0.0000 C   0  0  0  0  0  0  0  0  0
   -4.0034    0.5089    0.0000 C   0  0  0  0  0  0  0  0  0
   -4.8104    0.3374    0.0000 O   0  0  0  0  0  0  0  0  0
   -3.4514   -0.1041    0.0000 N   0  0  0  0  0  0  0  0  0
   -3.7063   -0.8888    0.0000 C   0  0  0  0  0  0  0  0  0
   -3.1543   -1.5019    0.0000 C   0  0  0  0  0  0  0  0  0
   -3.4092   -2.2865    0.0000 C   0  0  0  0  0  0  0  0  0
   -4.2162   -2.4580    0.0000 C   0  0  0  0  0  0  0  0  0
   -4.4711   -3.2426    0.0000 O   0  0  0  0  0  0  0  0  0
   -5.2781   -3.4142    0.0000 C   0  0  0  0  0  0  0  0  0
   -5.5330   -4.1988    0.0000 C   0  0  0  0  0  0  0  0  0
   -6.3400   -4.3703    0.0000 C   0  0  0  0  0  0  0  0  0
   -6.8920   -3.7572    0.0000 C   0  0  0  0  0  0  0  0  0
   -6.6371   -2.9726    0.0000 N   0  0  0  0  0  0  0  0  0
   -5.8301   -2.8011    0.0000 C   0  0  0  0  0  0  0  0  0
   -5.5752   -2.0164    0.0000 C   0  0  0  0  0  0  0  0  0
   -4.7682   -1.8449    0.0000 N   0  0  0  0  0  0  0  0  0
   -4.5133   -1.0603    0.0000 C   0  0  0  0  0  0  0  0  0
  1  2  1  0  0  0  0
  2  3  4  0  0  0  0
  2 10  4  0  0  0  0
  3  4  4  0  0  0  0
  4  5  1  0  0  0  0
  4  8  4  0  0  0  0
  5  6  1  0  0  0  0
  5 12  1  0  0  0  0
  6  7  1  0  0  0  0
  7  8  1  0  0  0  0
  8  9  4  0  0  0  0
  9 10  4  0  0  0  0
 10 11  1  0  0  0  0
 12 13  2  0  0  0  0
 12 14  1  0  0  0  0
 14 15  1  0  0  0  0
 15 16  4  0  0  0  0
 15 28  4  0  0  0  0
 16 17  4  0  0  0  0
 17 18  4  0  0  0  0
 18 19  1  0  0  0  0
 18 27  4  0  0  0  0
 19 20  1  0  0  0  0
 20 21  4  0  0  0  0
 20 25  4  0  0  0  0
 21 22  4  0  0  0  0
 22 23  4  0  0  0  0
 23 24  4  0  0  0  0
 24 25  4  0  0  0  0
 25 26  1  0  0  0  0
 27 28  4  0  0  0  0
M  END
>  <Name_Molregno>
14131

>  <5-HT2A>
6.8

>  <5-HT2C>
9

$$$$
14132
  Marvin  02231216192D 0   1.00000     0.00000     0

 31 34  0  0  0  0  0  0  0  0999 V2000
    0.7022    2.0795    0.0000 F   0  0  0  0  0  0  0  0  0
   -0.0123    2.4920    0.0000 C   0  0  0  0  0  0  0  0  0
    0.4002    3.2065    0.0000 F   0  0  0  0  0  0  0  0  0
   -0.4248    1.7775    0.0000 F   0  0  0  0  0  0  0  0  0
   -0.7267    2.9045    0.0000 C   0  0  0  0  0  0  0  0  0
   -1.4412    2.4920    0.0000 C   0  0  0  0  0  0  0  0  0
   -2.1557    2.9045    0.0000 C   0  0  0  0  0  0  0  0  0
   -2.9403    2.6496    0.0000 N   0  0  0  0  0  0  0  0  0
   -3.4252    3.3170    0.0000 C   0  0  0  0  0  0  0  0  0
   -2.9403    3.9845    0.0000 C   0  0  0  0  0  0  0  0  0
   -2.1557    3.7295    0.0000 C   0  0  0  0  0  0  0  0  0
   -1.4412    4.1420    0.0000 C   0  0  0  0  0  0  0  0  0
   -0.7267    3.7295    0.0000 C   0  0  0  0  0  0  0  0  0
   -0.0123    4.1420    0.0000 C   0  0  0  0  0  0  0  0  0
   -3.1952    1.8650    0.0000 C   0  0  0  0  0  0  0  0  0
   -4.0022    1.6934    0.0000 O   0  0  0  0  0  0  0  0  0
   -2.6432    1.2519    0.0000 N   0  0  0  0  0  0  0  0  0
   -2.8981    0.4672    0.0000 C   0  0  0  0  0  0  0  0  0
   -2.3461   -0.1459    0.0000 C   0  0  0  0  0  0  0  0  0
   -2.6010   -0.9305    0.0000 C   0  0  0  0  0  0  0  0  0
   -3.4080   -1.1020    0.0000 C   0  0  0  0  0  0  0  0  0
   -3.6630   -1.8866    0.0000 O   0  0  0  0  0  0  0  0  0
   -4.4699   -2.0582    0.0000 C   0  0  0  0  0  0  0  0  0
   -4.7249   -2.8428    0.0000 C   0  0  0  0  0  0  0  0  0
   -5.5318   -3.0143    0.0000 C   0  0  0  0  0  0  0  0  0
   -6.0839   -2.4012    0.0000 C   0  0  0  0  0  0  0  0  0
   -5.8289   -1.6166    0.0000 N   0  0  0  0  0  0  0  0  0
   -5.0220   -1.4451    0.0000 C   0  0  0  0  0  0  0  0  0
   -4.7670   -0.6604    0.0000 C   0  0  0  0  0  0  0  0  0
   -3.9601   -0.4889    0.0000 N   0  0  0  0  0  0  0  0  0
   -3.7051    0.2957    0.0000 C   0  0  0  0  0  0  0  0  0
  1  2  1  0  0  0  0
  2  3  1  0  0  0  0
  2  4  1  0  0  0  0
  2  5  1  0  0  0  0
  5  6  4  0  0  0  0
  5 13  4  0  0  0  0
  6  7  4  0  0  0  0
  7  8  1  0  0  0  0
  7 11  4  0  0  0  0
  8  9  1  0  0  0  0
  8 15  1  0  0  0  0
  9 10  1  0  0  0  0
 10 11  1  0  0  0  0
 11 12  4  0  0  0  0
 12 13  4  0  0  0  0
 13 14  1  0  0  0  0
 15 16  2  0  0  0  0
 15 17  1  0  0  0  0
 17 18  1  0  0  0  0
 18 19  4  0  0  0  0
 18 31  4  0  0  0  0
 19 20  4  0  0  0  0
 20 21  4  0  0  0  0
 21 22  1  0  0  0  0
 21 30  4  0  0  0  0
 22 23  1  0  0  0  0
 23 24  4  0  0  0  0
 23 28  4  0  0  0  0
 24 25  4  0  0  0  0
 25 26  4  0  0  0  0
 26 27  4  0  0  0  0
 27 28  4  0  0  0  0
 28 29  1  0  0  0  0
 30 31  4  0  0  0  0
M  END
>  <Name_Molregno>
14132

>  <5-HT2A>
6.8

>  <5-HT2C>
9

$$$$
16396
  Marvin  02231216192D 0   1.00000     0.00000     0

 37 41  0  0  0  0  0  0  0  0999 V2000
    9.4469    5.2044    0.0000 O   0  0  0  0  0  0  0  0  0
    9.1920    4.4198    0.0000 N   0  0  0  0  0  0  0  0  0
    8.3670    4.4198    0.0000 C   0  0  0  0  0  0  0  0  0
    8.1121    5.2044    0.0000 N   0  0  0  0  0  0  0  0  0
    8.7795    5.6894    0.0000 C   0  0  0  0  0  0  0  0  0
    8.7795    6.5144    0.0000 C   0  0  0  0  0  0  0  0  0
    7.8821    3.7524    0.0000 C   0  0  0  0  0  0  0  0  0
    8.2176    2.9987    0.0000 C   0  0  0  0  0  0  0  0  0
    7.7327    2.3313    0.0000 C   0  0  0  0  0  0  0  0  0
    8.0683    1.5776    0.0000 C   0  0  0  0  0  0  0  0  0
    6.9122    2.4175    0.0000 C   0  0  0  0  0  0  0  0  0
    6.5767    3.1712    0.0000 C   0  0  0  0  0  0  0  0  0
    7.0616    3.8386    0.0000 C   0  0  0  0  0  0  0  0  0
    6.4273    1.7501    0.0000 C   0  0  0  0  0  0  0  0  0
    6.7629    0.9964    0.0000 C   0  0  0  0  0  0  0  0  0
    6.2779    0.3289    0.0000 C   0  0  0  0  0  0  0  0  0
    5.4575    0.4152    0.0000 C   0  0  0  0  0  0  0  0  0
    5.1219    1.1689    0.0000 C   0  0  0  0  0  0  0  0  0
    5.6068    1.8363    0.0000 C   0  0  0  0  0  0  0  0  0
    4.9725   -0.2523    0.0000 C   0  0  0  0  0  0  0  0  0
    4.1521   -0.1660    0.0000 O   0  0  0  0  0  0  0  0  0
    5.3081   -1.0059    0.0000 N   0  0  0  0  0  0  0  0  0
    4.8232   -1.6734    0.0000 C   0  0  0  0  0  0  0  0  0
    5.1587   -2.4270    0.0000 C   0  0  0  0  0  0  0  0  0
    4.6738   -3.0945    0.0000 C   0  0  0  0  0  0  0  0  0
    5.0094   -3.8482    0.0000 N   0  0  0  0  0  0  0  0  0
    5.8298   -3.9344    0.0000 C   0  0  0  0  0  0  0  0  0
    6.1654   -4.6881    0.0000 C   0  0  0  0  0  0  0  0  0
    5.6805   -5.3555    0.0000 N   0  0  0  0  0  0  0  0  0
    4.8600   -5.2693    0.0000 C   0  0  0  0  0  0  0  0  0
    4.5244   -4.5156    0.0000 C   0  0  0  0  0  0  0  0  0
    6.0160   -6.1092    0.0000 C   0  0  0  0  0  0  0  0  0
    3.8533   -3.0082    0.0000 C   0  0  0  0  0  0  0  0  0
    3.3684   -3.6757    0.0000 O   0  0  0  0  0  0  0  0  0
    2.5479   -3.5894    0.0000 C   0  0  0  0  0  0  0  0  0
    3.5178   -2.2546    0.0000 C   0  0  0  0  0  0  0  0  0
    4.0027   -1.5871    0.0000 C   0  0  0  0  0  0  0  0  0
  1  2  4  0  0  0  0
  1  5  4  0  0  0  0
  2  3  4  0  0  0  0
  3  4  4  0  0  0  0
  3  7  1  0  0  0  0
  4  5  4  0  0  0  0
  5  6  1  0  0  0  0
  7  8  4  0  0  0  0
  7 13  4  0  0  0  0
  8  9  4  0  0  0  0
  9 10  1  0  0  0  0
  9 11  4  0  0  0  0
 11 12  4  0  0  0  0
 11 14  1  0  0  0  0
 12 13  4  0  0  0  0
 14 15  4  0  0  0  0
 14 19  4  0  0  0  0
 15 16  4  0  0  0  0
 16 17  4  0  0  0  0
 17 18  4  0  0  0  0
 17 20  1  0  0  0  0
 18 19  4  0  0  0  0
 20 21  2  0  0  0  0
 20 22  1  0  0  0  0
 22 23  1  0  0  0  0
 23 24  4  0  0  0  0
 23 37  4  0  0  0  0
 24 25  4  0  0  0  0
 25 26  1  0  0  0  0
 25 33  4  0  0  0  0
 26 27  1  0  0  0  0
 26 31  1  0  0  0  0
 27 28  1  0  0  0  0
 28 29  1  0  0  0  0
 29 30  1  0  0  0  0
 29 32  1  0  0  0  0
 30 31  1  0  0  0  0
 33 34  1  0  0  0  0
 33 36  4  0  0  0  0
 34 35  1  0  0  0  0
 36 37  4  0  0  0  0
M  END
>  <Name_Molregno>
16396

>  <5-HT1A>
7.14

>  <5-HT1B>
9.05

>  <5-HT1D>
8.78

>  <5-HT1E>
5.4

>  <5-HT2A>
7.59

>  <5-HT2C>
6.99

>  <5-HT5>
5.2

>  <5-HT6>
5.27

>  <5-HT7>
5.4

>  <DOPAMINE D1>
5

>  <DOPAMINE D2>
5

>  <DOPAMINE D3>
5

>  <DOPAMINE D4>
5

>  <DOPAMINE D5>
5

>  <HISTAMINE H1>
5

>  <Muscarinic acetylcholine receptor M1>
5

>  <Muscarinic acetylcholine receptor M2>
5

>  <Muscarinic acetylcholine receptor M3>
5

>  <Muscarinic acetylcholine receptor M4>
5

>  <Muscarinic acetylcholine receptor M5>
5

$$$$
16538
  Marvin  02231216192D 0   1.00000     0.00000     0

 37 42  0  0  0  0  0  0  0  0999 V2000
    8.4534   -5.5454    0.0000 O   0  0  0  0  0  0  0  0  0
    7.9412   -4.8987    0.0000 N   0  0  0  0  0  0  0  0  0
    8.3980   -4.2117    0.0000 C   0  0  0  0  0  0  0  0  0
    9.1925   -4.4338    0.0000 N   0  0  0  0  0  0  0  0  0
    9.2268   -5.2581    0.0000 C   0  0  0  0  0  0  0  0  0
    9.9138   -5.7149    0.0000 C   0  0  0  0  0  0  0  0  0
    8.1106   -3.4383    0.0000 C   0  0  0  0  0  0  0  0  0
    7.2972   -3.3005    0.0000 C   0  0  0  0  0  0  0  0  0
    7.0099   -2.5271    0.0000 C   0  0  0  0  0  0  0  0  0
    6.1965   -2.3892    0.0000 C   0  0  0  0  0  0  0  0  0
    7.5360   -1.8916    0.0000 C   0  0  0  0  0  0  0  0  0
    8.3494   -2.0295    0.0000 C   0  0  0  0  0  0  0  0  0
    8.6367   -2.8028    0.0000 C   0  0  0  0  0  0  0  0  0
    7.2487   -1.1182    0.0000 C   0  0  0  0  0  0  0  0  0
    6.4353   -0.9804    0.0000 C   0  0  0  0  0  0  0  0  0
    6.1480   -0.2070    0.0000 C   0  0  0  0  0  0  0  0  0
    6.6741    0.4285    0.0000 C   0  0  0  0  0  0  0  0  0
    7.4875    0.2906    0.0000 C   0  0  0  0  0  0  0  0  0
    7.7748   -0.4828    0.0000 C   0  0  0  0  0  0  0  0  0
    6.3868    1.2018    0.0000 C   0  0  0  0  0  0  0  0  0
    6.9129    1.8373    0.0000 O   0  0  0  0  0  0  0  0  0
    5.5734    1.3397    0.0000 N   0  0  0  0  0  0  0  0  0
    5.2861    2.1130    0.0000 C   0  0  0  0  0  0  0  0  0
    4.4727    2.2509    0.0000 C   0  0  0  0  0  0  0  0  0
    4.1854    3.0242    0.0000 C   0  0  0  0  0  0  0  0  0
    4.7115    3.6597    0.0000 C   0  0  0  0  0  0  0  0  0
    4.2696    4.3565    0.0000 O   0  0  0  0  0  0  0  0  0
    3.4705    4.1516    0.0000 C   0  0  0  0  0  0  0  0  0
    3.4184    3.3282    0.0000 C   0  0  0  0  0  0  0  0  0
    3.4527    2.5039    0.0000 C   0  0  0  0  0  0  0  0  0
    2.7560    2.0621    0.0000 C   0  0  0  0  0  0  0  0  0
    2.0250    2.4446    0.0000 N   0  0  0  0  0  0  0  0  0
    1.9907    3.2689    0.0000 C   0  0  0  0  0  0  0  0  0
    2.6874    3.7107    0.0000 C   0  0  0  0  0  0  0  0  0
    1.3282    2.0027    0.0000 C   0  0  0  0  0  0  0  0  0
    5.5249    3.5219    0.0000 C   0  0  0  0  0  0  0  0  0
    5.8122    2.7485    0.0000 C   0  0  0  0  0  0  0  0  0
  1  2  4  0  0  0  0
  1  5  4  0  0  0  0
  2  3  4  0  0  0  0
  3  4  4  0  0  0  0
  3  7  1  0  0  0  0
  4  5  4  0  0  0  0
  5  6  1  0  0  0  0
  7  8  4  0  0  0  0
  7 13  4  0  0  0  0
  8  9  4  0  0  0  0
  9 10  1  0  0  0  0
  9 11  4  0  0  0  0
 11 12  4  0  0  0  0
 11 14  1  0  0  0  0
 12 13  4  0  0  0  0
 14 15  4  0  0  0  0
 14 19  4  0  0  0  0
 15 16  4  0  0  0  0
 16 17  4  0  0  0  0
 17 18  4  0  0  0  0
 17 20  1  0  0  0  0
 18 19  4  0  0  0  0
 20 21  2  0  0  0  0
 20 22  1  0  0  0  0
 22 23  1  0  0  0  0
 23 24  4  0  0  0  0
 23 37  4  0  0  0  0
 24 25  4  0  0  0  0
 25 26  4  0  0  0  0
 25 29  1  0  0  0  0
 26 27  1  0  0  0  0
 26 36  4  0  0  0  0
 27 28  1  0  0  0  0
 28 29  1  0  0  0  0
 29 30  1  0  0  0  0
 29 34  1  0  0  0  0
 30 31  1  0  0  0  0
 31 32  1  0  0  0  0
 32 33  1  0  0  0  0
 32 35  1  0  0  0  0
 33 34  1  0  0  0  0
 36 37  4  0  0  0  0
M  END
>  <Name_Molregno>
16538

>  <5-HT1B>
7.5

>  <5-HT1D>
5.7

>  <5-HT2A>
6

$$$$
20819
  Marvin  02231216192D 0   1.00000     0.00000     0

 14 15  0  0  1  0  0  0  0  0999 V2000
    0.1624   -1.0405    0.0000 O   0  0  0  0  0  0  0  0  0
   -0.5521   -0.6280    0.0000 C   0  0  0  0  0  0  0  0  0
   -1.2666   -1.0405    0.0000 C   0  0  0  0  0  0  0  0  0
   -1.9811   -0.6280    0.0000 C   0  0  0  0  0  0  0  0  0
   -1.9811    0.1970    0.0000 C   0  0  0  0  0  0  0  0  0
   -2.7657    0.4520    0.0000 N   0  0  0  0  0  0  0  0  0
   -3.2506   -0.2155    0.0000 C   0  0  0  0  0  0  0  0  0
   -2.7657   -0.8829    0.0000 C   0  0  0  0  0  0  0  0  0
   -3.0206   -1.6675    0.0000 C   0  0  0  0  0  0  0  0  0
   -3.8276   -1.8391    0.0000 C   0  0  0  0  0  0  0  0  0
   -4.0825   -2.6237    0.0000 N   0  0  0  0  0  0  0  0  0
   -4.3796   -1.2260    0.0000 C   0  0  0  0  0  0  0  0  0
   -1.2666    0.6095    0.0000 C   0  0  0  0  0  0  0  0  0
   -0.5521    0.1970    0.0000 C   0  0  0  0  0  0  0  0  0
  1  2  1  0  0  0  0
  2  3  4  0  0  0  0
  2 14  4  0  0  0  0
  3  4  4  0  0  0  0
  4  5  4  0  0  0  0
  4  8  4  0  0  0  0
  5  6  4  0  0  0  0
  5 13  4  0  0  0  0
  6  7  4  0  0  0  0
  7  8  4  0  0  0  0
  8  9  1  0  0  0  0
  9 10  1  0  0  0  0
 10 11  1  0  0  0  0
 10 12  1  0  0  0  0
 13 14  4  0  0  0  0
M  STY  1   1 DAT
M  SAL   1  1   6
M  SDT   1 MRV_IMPLICIT_H                                        
M  SDD   1     0.0000    0.0000    DR    ALL  0       0  
M  SED   1 IMPL_H1
M  END
>  <Name_Molregno>
20819

>  <5-HT2A>
7.92

>  <5-HT2C>
8.16

$$$$
21325
  Marvin  02231216192D 0   1.00000     0.00000     0

 15 16  0  0  0  0  0  0  0  0999 V2000
    0.7633   -0.9168    0.0000 O   0  0  0  0  0  0  0  0  0
    0.0489   -1.3293    0.0000 C   0  0  0  0  0  0  0  0  0
    0.0489   -2.1543    0.0000 N   0  0  0  0  0  0  0  0  0
   -0.6656   -0.9168    0.0000 C   0  0  0  0  0  0  0  0  0
   -1.3801   -1.3293    0.0000 C   0  0  0  0  0  0  0  0  0
   -2.0946   -0.9168    0.0000 C   0  0  0  0  0  0  0  0  0
   -2.0946   -0.0918    0.0000 C   0  0  0  0  0  0  0  0  0
   -2.8792    0.1632    0.0000 N   0  0  0  0  0  0  0  0  0
   -3.3641   -0.5043    0.0000 C   0  0  0  0  0  0  0  0  0
   -2.8792   -1.1717    0.0000 C   0  0  0  0  0  0  0  0  0
   -3.1341   -1.9563    0.0000 C   0  0  0  0  0  0  0  0  0
   -3.9411   -2.1279    0.0000 C   0  0  0  0  0  0  0  0  0
   -4.1960   -2.9125    0.0000 N   0  0  0  0  0  0  0  0  0
   -1.3801    0.3207    0.0000 C   0  0  0  0  0  0  0  0  0
   -0.6656   -0.0918    0.0000 C   0  0  0  0  0  0  0  0  0
  1  2  2  0  0  0  0
  2  3  1  0  0  0  0
  2  4  1  0  0  0  0
  4  5  4  0  0  0  0
  4 15  4  0  0  0  0
  5  6  4  0  0  0  0
  6  7  4  0  0  0  0
  6 10  4  0  0  0  0
  7  8  4  0  0  0  0
  7 14  4  0  0  0  0
  8  9  4  0  0  0  0
  9 10  4  0  0  0  0
 10 11  1  0  0  0  0
 11 12  1  0  0  0  0
 12 13  1  0  0  0  0
 14 15  4  0  0  0  0
M  STY  1   1 DAT
M  SAL   1  1   8
M  SDT   1 MRV_IMPLICIT_H                                        
M  SDD   1     0.0000    0.0000    DR    ALL  0       0  
M  SED   1 IMPL_H1
M  END
>  <Name_Molregno>
21325

>  <5-HT1A>
8.99

>  <5-HT1B>
8.91

>  <5-HT1D>
9.01

>  <5-HT1E>
5.37

>  <5-HT2A>
6.38

>  <5-HT2C>
6.15

>  <5-HT5>
7.7

>  <5-HT6>
6.29

>  <5-HT7>
9.22

$$$$
21936
  Marvin  02231216192D 0   1.00000     0.00000     0

 24 25  0  0  0  0  0  0  0  0999 V2000
   -0.4378   -0.8300    0.0000 S   0  0  0  0  0  0  0  0  0
    0.2766   -1.2425    0.0000 C   0  0  0  0  0  0  0  0  0
    0.9911   -0.8300    0.0000 C   0  0  0  0  0  0  0  0  0
    1.7056   -1.2425    0.0000 C   0  0  0  0  0  0  0  0  0
    2.4200   -0.8300    0.0000 N   0  0  0  0  0  0  0  0  0
    3.1345   -1.2425    0.0000 C   0  0  0  0  0  0  0  0  0
    2.4200   -0.0050    0.0000 C   0  0  0  0  0  0  0  0  0
   -1.1523   -1.2425    0.0000 C   0  0  0  0  0  0  0  0  0
   -1.1523   -2.0675    0.0000 C   0  0  0  0  0  0  0  0  0
   -1.8668   -2.4800    0.0000 C   0  0  0  0  0  0  0  0  0
   -2.5813   -2.0675    0.0000 C   0  0  0  0  0  0  0  0  0
   -2.5813   -1.2425    0.0000 C   0  0  0  0  0  0  0  0  0
   -1.8668   -0.8300    0.0000 C   0  0  0  0  0  0  0  0  0
   -1.8668   -0.0050    0.0000 N   0  0  0  0  0  0  0  0  0
   -2.5813    0.4075    0.0000 C   0  0  0  0  0  0  0  0  0
   -3.2957   -0.0050    0.0000 O   0  0  0  0  0  0  0  0  0
   -2.5813    1.2325    0.0000 C   0  0  0  0  0  0  0  0  0
   -3.2957    1.6450    0.0000 C   0  0  0  0  0  0  0  0  0
   -3.2957    2.4700    0.0000 C   0  0  0  0  0  0  0  0  0
   -4.0102    2.8825    0.0000 C   0  0  0  0  0  0  0  0  0
   -4.0102    3.7075    0.0000 C   0  0  0  0  0  0  0  0  0
   -3.2957    4.1200    0.0000 C   0  0  0  0  0  0  0  0  0
   -2.5813    3.7075    0.0000 C   0  0  0  0  0  0  0  0  0
   -2.5813    2.8825    0.0000 C   0  0  0  0  0  0  0  0  0
  1  2  1  0  0  0  0
  1  8  1  0  0  0  0
  2  3  1  0  0  0  0
  3  4  1  0  0  0  0
  4  5  1  0  0  0  0
  5  6  1  0  0  0  0
  5  7  1  0  0  0  0
  8  9  4  0  0  0  0
  8 13  4  0  0  0  0
  9 10  4  0  0  0  0
 10 11  4  0  0  0  0
 11 12  4  0  0  0  0
 12 13  4  0  0  0  0
 13 14  1  0  0  0  0
 14 15  1  0  0  0  0
 15 16  2  0  0  0  0
 15 17  1  0  0  0  0
 17 18  2  0  0  0  0
 18 19  1  0  0  0  0
 19 20  4  0  0  0  0
 19 24  4  0  0  0  0
 20 21  4  0  0  0  0
 21 22  4  0  0  0  0
 22 23  4  0  0  0  0
 23 24  4  0  0  0  0
M  END
>  <Name_Molregno>
21936

>  <5-HT1D>
5.17

>  <5-HT2A>
7.8

$$$$
22264
  Marvin  02231216192D 0   1.00000     0.00000     0

 25 27  0  0  0  0  0  0  0  0999 V2000
   -0.1296   -0.9956    0.0000 F   0  0  0  0  0  0  0  0  0
    0.5848   -0.5831    0.0000 C   0  0  0  0  0  0  0  0  0
    0.5848    0.2419    0.0000 C   0  0  0  0  0  0  0  0  0
    1.2993    0.6544    0.0000 C   0  0  0  0  0  0  0  0  0
    2.0138    0.2419    0.0000 C   0  0  0  0  0  0  0  0  0
    2.0138   -0.5831    0.0000 C   0  0  0  0  0  0  0  0  0
    1.2993   -0.9956    0.0000 C   0  0  0  0  0  0  0  0  0
    2.7282    0.6544    0.0000 C   0  0  0  0  0  0  0  0  0
    2.7282    1.4794    0.0000 O   0  0  0  0  0  0  0  0  0
    3.4427    0.2419    0.0000 C   0  0  0  0  0  0  0  0  0
    4.1572    0.6544    0.0000 C   0  0  0  0  0  0  0  0  0
    4.8717    0.2419    0.0000 C   0  0  0  0  0  0  0  0  0
    4.8717   -0.5831    0.0000 N   0  0  0  0  0  0  0  0  0
    4.1572   -0.9956    0.0000 C   0  0  0  0  0  0  0  0  0
    3.4427   -0.5831    0.0000 C   0  0  0  0  0  0  0  0  0
    5.5861   -0.9956    0.0000 C   0  0  0  0  0  0  0  0  0
    6.3006   -0.5831    0.0000 C   0  0  0  0  0  0  0  0  0
    7.0151   -0.9956    0.0000 C   0  0  0  0  0  0  0  0  0
    7.7295   -0.5831    0.0000 C   0  0  0  0  0  0  0  0  0
    8.4440   -0.9956    0.0000 C   0  0  0  0  0  0  0  0  0
    9.1585   -0.5831    0.0000 C   0  0  0  0  0  0  0  0  0
    9.8730   -0.9956    0.0000 C   0  0  0  0  0  0  0  0  0
    9.8730   -1.8206    0.0000 C   0  0  0  0  0  0  0  0  0
    9.1585   -2.2331    0.0000 C   0  0  0  0  0  0  0  0  0
    8.4440   -1.8206    0.0000 C   0  0  0  0  0  0  0  0  0
  1  2  1  0  0  0  0
  2  3  4  0  0  0  0
  2  7  4  0  0  0  0
  3  4  4  0  0  0  0
  4  5  4  0  0  0  0
  5  6  4  0  0  0  0
  5  8  1  0  0  0  0
  6  7  4  0  0  0  0
  8  9  2  0  0  0  0
  8 10  1  0  0  0  0
 10 11  1  0  0  0  0
 10 15  1  0  0  0  0
 11 12  1  0  0  0  0
 12 13  1  0  0  0  0
 13 14  1  0  0  0  0
 13 16  1  0  0  0  0
 14 15  1  0  0  0  0
 16 17  1  0  0  0  0
 17 18  1  0  0  0  0
 18 19  1  0  0  0  0
 19 20  1  0  0  0  0
 20 21  4  0  0  0  0
 20 25  4  0  0  0  0
 21 22  4  0  0  0  0
 22 23  4  0  0  0  0
 23 24  4  0  0  0  0
 24 25  4  0  0  0  0
M  END
>  <Name_Molregno>
22264

>  <5-HT2A>
8.28

$$$$
22388
  Marvin  02231216192D 0   1.00000     0.00000     0

 22 24  0  0  0  0  0  0  0  0999 V2000
    1.4966    1.5869    0.0000 O   0  0  0  0  0  0  0  0  0
    2.2110    1.1744    0.0000 C   0  0  0  0  0  0  0  0  0
    2.2110    0.3494    0.0000 C   0  0  0  0  0  0  0  0  0
    2.9255   -0.0631    0.0000 C   0  0  0  0  0  0  0  0  0
    2.9255   -0.8881    0.0000 C   0  0  0  0  0  0  0  0  0
    2.2110   -1.3006    0.0000 N   0  0  0  0  0  0  0  0  0
    1.4966   -0.8881    0.0000 C   0  0  0  0  0  0  0  0  0
    1.4966   -0.0631    0.0000 C   0  0  0  0  0  0  0  0  0
    2.2110   -2.1256    0.0000 C   0  0  0  0  0  0  0  0  0
    1.4966   -2.5381    0.0000 C   0  0  0  0  0  0  0  0  0
    1.4966   -3.3631    0.0000 C   0  0  0  0  0  0  0  0  0
    2.2110   -3.7756    0.0000 C   0  0  0  0  0  0  0  0  0
    2.2110   -4.6006    0.0000 C   0  0  0  0  0  0  0  0  0
    1.4966   -5.0131    0.0000 C   0  0  0  0  0  0  0  0  0
    0.7821   -4.6006    0.0000 C   0  0  0  0  0  0  0  0  0
    0.7821   -3.7756    0.0000 C   0  0  0  0  0  0  0  0  0
    2.9255    1.5869    0.0000 C   0  0  0  0  0  0  0  0  0
    2.9255    2.4119    0.0000 C   0  0  0  0  0  0  0  0  0
    3.6400    2.8244    0.0000 C   0  0  0  0  0  0  0  0  0
    4.3544    2.4119    0.0000 C   0  0  0  0  0  0  0  0  0
    4.3544    1.5869    0.0000 C   0  0  0  0  0  0  0  0  0
    3.6400    1.1744    0.0000 C   0  0  0  0  0  0  0  0  0
  1  2  2  0  0  0  0
  2  3  1  0  0  0  0
  2 17  1  0  0  0  0
  3  4  1  0  0  0  0
  3  8  1  0  0  0  0
  4  5  1  0  0  0  0
  5  6  1  0  0  0  0
  6  7  1  0  0  0  0
  6  9  1  0  0  0  0
  7  8  1  0  0  0  0
  9 10  1  0  0  0  0
 10 11  1  0  0  0  0
 11 12  4  0  0  0  0
 11 16  4  0  0  0  0
 12 13  4  0  0  0  0
 13 14  4  0  0  0  0
 14 15  4  0  0  0  0
 15 16  4  0  0  0  0
 17 18  4  0  0  0  0
 17 22  4  0  0  0  0
 18 19  4  0  0  0  0
 19 20  4  0  0  0  0
 20 21  4  0  0  0  0
 21 22  4  0  0  0  0
M  END
>  <Name_Molregno>
22388

>  <5-HT2A>
8.02

$$$$
22470
  Marvin  02231216192D 0   1.00000     0.00000     0

 22 24  0  0  1  0  0  0  0  0999 V2000
    1.4966    1.5869    0.0000 O   0  0  0  0  0  0  0  0  0
    2.2110    1.1744    0.0000 C   0  0  0  0  0  0  0  0  0
    2.2110    0.3494    0.0000 C   0  0  0  0  0  0  0  0  0
    2.9255   -0.0631    0.0000 C   0  0  0  0  0  0  0  0  0
    2.9255   -0.8881    0.0000 C   0  0  0  0  0  0  0  0  0
    2.2110   -1.3006    0.0000 N   0  0  0  0  0  0  0  0  0
    1.4966   -0.8881    0.0000 C   0  0  0  0  0  0  0  0  0
    1.4966   -0.0631    0.0000 C   0  0  0  0  0  0  0  0  0
    2.2110   -2.1256    0.0000 C   0  0  0  0  0  0  0  0  0
    1.4966   -2.5381    0.0000 C   0  0  0  0  0  0  0  0  0
    1.4966   -3.3631    0.0000 C   0  0  0  0  0  0  0  0  0
    2.2110   -3.7756    0.0000 C   0  0  0  0  0  0  0  0  0
    2.2110   -4.6006    0.0000 C   0  0  0  0  0  0  0  0  0
    1.4966   -5.0131    0.0000 C   0  0  0  0  0  0  0  0  0
    0.7821   -4.6006    0.0000 C   0  0  0  0  0  0  0  0  0
    0.7821   -3.7756    0.0000 C   0  0  0  0  0  0  0  0  0
    2.9255    1.5869    0.0000 C   0  0  0  0  0  0  0  0  0
    2.9255    2.4119    0.0000 C   0  0  0  0  0  0  0  0  0
    3.6400    2.8244    0.0000 C   0  0  0  0  0  0  0  0  0
    4.3544    2.4119    0.0000 C   0  0  0  0  0  0  0  0  0
    4.3544    1.5869    0.0000 C   0  0  0  0  0  0  0  0  0
    3.6400    1.1744    0.0000 C   0  0  0  0  0  0  0  0  0
  1  2  1  0  0  0  0
  2  3  1  0  0  0  0
  2 17  1  0  0  0  0
  3  4  1  0  0  0  0
  3  8  1  0  0  0  0
  4  5  1  0  0  0  0
  5  6  1  0  0  0  0
  6  7  1  0  0  0  0
  6  9  1  0  0  0  0
  7  8  1  0  0  0  0
  9 10  1  0  0  0  0
 10 11  1  0  0  0  0
 11 12  4  0  0  0  0
 11 16  4  0  0  0  0
 12 13  4  0  0  0  0
 13 14  4  0  0  0  0
 14 15  4  0  0  0  0
 15 16  4  0  0  0  0
 17 18  4  0  0  0  0
 17 22  4  0  0  0  0
 18 19  4  0  0  0  0
 19 20  4  0  0  0  0
 20 21  4  0  0  0  0
 21 22  4  0  0  0  0
M  END
>  <Name_Molregno>
22470

>  <5-HT1A>
5.47

>  <5-HT2A>
8.13

>  <5-HT2C>
6.28

>  <5-HT6>
5.56

>  <Alpha-1A>
5.73

>  <Alpha-1B>
5.8

>  <Alpha-2A>
5.8

>  <Alpha-2C>
5.93

>  <DOPAMINE D1>
6.49

>  <DOPAMINE D4>
5.41

>  <DOPAMINE D5>
5.54

>  <Dopamine transporter>
5

>  <HISTAMINE H1>
5.79

>  <Norepinephrine transporter>
5

>  <Serotonin transporter>
5.59

$$$$
22512
  Marvin  02231216192D 0   1.00000     0.00000     0

 25 27  0  0  1  0  0  0  0  0999 V2000
   -0.1296   -0.9956    0.0000 F   0  0  0  0  0  0  0  0  0
    0.5848   -0.5831    0.0000 C   0  0  0  0  0  0  0  0  0
    0.5848    0.2419    0.0000 C   0  0  0  0  0  0  0  0  0
    1.2993    0.6544    0.0000 C   0  0  0  0  0  0  0  0  0
    2.0138    0.2419    0.0000 C   0  0  0  0  0  0  0  0  0
    2.0138   -0.5831    0.0000 C   0  0  0  0  0  0  0  0  0
    1.2993   -0.9956    0.0000 C   0  0  0  0  0  0  0  0  0
    2.7282    0.6544    0.0000 C   0  0  0  0  0  0  0  0  0
    2.7282    1.4794    0.0000 O   0  0  0  0  0  0  0  0  0
    3.4427    0.2419    0.0000 C   0  0  0  0  0  0  0  0  0
    4.1572    0.6544    0.0000 C   0  0  0  0  0  0  0  0  0
    4.8717    0.2419    0.0000 C   0  0  0  0  0  0  0  0  0
    4.8717   -0.5831    0.0000 N   0  0  0  0  0  0  0  0  0
    4.1572   -0.9956    0.0000 C   0  0  0  0  0  0  0  0  0
    3.4427   -0.5831    0.0000 C   0  0  0  0  0  0  0  0  0
    5.5861   -0.9956    0.0000 C   0  0  0  0  0  0  0  0  0
    6.3006   -0.5831    0.0000 C   0  0  0  0  0  0  0  0  0
    7.0151   -0.9956    0.0000 C   0  0  0  0  0  0  0  0  0
    7.7295   -0.5831    0.0000 C   0  0  0  0  0  0  0  0  0
    8.4440   -0.9956    0.0000 C   0  0  0  0  0  0  0  0  0
    9.1585   -0.5831    0.0000 C   0  0  0  0  0  0  0  0  0
    9.8730   -0.9956    0.0000 C   0  0  0  0  0  0  0  0  0
    9.8730   -1.8206    0.0000 C   0  0  0  0  0  0  0  0  0
    9.1585   -2.2331    0.0000 C   0  0  0  0  0  0  0  0  0
    8.4440   -1.8206    0.0000 C   0  0  0  0  0  0  0  0  0
  1  2  1  0  0  0  0
  2  3  4  0  0  0  0
  2  7  4  0  0  0  0
  3  4  4  0  0  0  0
  4  5  4  0  0  0  0
  5  6  4  0  0  0  0
  5  8  1  0  0  0  0
  6  7  4  0  0  0  0
  8  9  1  0  0  0  0
  8 10  1  0  0  0  0
 10 11  1  0  0  0  0
 10 15  1  0  0  0  0
 11 12  1  0  0  0  0
 12 13  1  0  0  0  0
 13 14  1  0  0  0  0
 13 16  1  0  0  0  0
 14 15  1  0  0  0  0
 16 17  1  0  0  0  0
 17 18  1  0  0  0  0
 18 19  1  0  0  0  0
 19 20  1  0  0  0  0
 20 21  4  0  0  0  0
 20 25  4  0  0  0  0
 21 22  4  0  0  0  0
 22 23  4  0  0  0  0
 23 24  4  0  0  0  0
 24 25  4  0  0  0  0
M  END
>  <Name_Molregno>
22512

>  <5-HT2A>
6.9

$$$$
24530
  Marvin  02231216192D 0   1.00000     0.00000     0

 26 28  0  0  0  0  0  0  0  0999 V2000
    3.3482    3.4830    0.0000 Br  0  0  0  0  0  0  0  0  0
    3.3482    2.6580    0.0000 C   0  0  0  0  0  0  0  0  0
    4.0627    2.2455    0.0000 C   0  0  0  0  0  0  0  0  0
    4.0627    1.4205    0.0000 C   0  0  0  0  0  0  0  0  0
    3.3482    1.0080    0.0000 C   0  0  0  0  0  0  0  0  0
    2.6338    1.4205    0.0000 C   0  0  0  0  0  0  0  0  0
    2.6338    2.2455    0.0000 C   0  0  0  0  0  0  0  0  0
    1.9193    2.6580    0.0000 C   0  0  0  0  0  0  0  0  0
    3.3482    0.1830    0.0000 C   0  0  0  0  0  0  0  0  0
    2.6338   -0.2295    0.0000 O   0  0  0  0  0  0  0  0  0
    4.0627   -0.2295    0.0000 N   0  0  0  0  0  0  0  0  0
    4.0627   -1.0545    0.0000 C   0  0  0  0  0  0  0  0  0
    4.7772   -1.4670    0.0000 C   0  0  0  0  0  0  0  0  0
    4.7772   -2.2920    0.0000 C   0  0  0  0  0  0  0  0  0
    5.4917   -2.7045    0.0000 N   0  0  0  0  0  0  0  0  0
    6.2061   -2.2920    0.0000 C   0  0  0  0  0  0  0  0  0
    6.9206   -2.7045    0.0000 C   0  0  0  0  0  0  0  0  0
    6.9206   -3.5295    0.0000 N   0  0  0  0  0  0  0  0  0
    6.2061   -3.9420    0.0000 C   0  0  0  0  0  0  0  0  0
    5.4917   -3.5295    0.0000 C   0  0  0  0  0  0  0  0  0
    7.6351   -3.9420    0.0000 C   0  0  0  0  0  0  0  0  0
    4.0627   -2.7045    0.0000 C   0  0  0  0  0  0  0  0  0
    4.0627   -3.5295    0.0000 O   0  0  0  0  0  0  0  0  0
    3.3482   -3.9420    0.0000 C   0  0  0  0  0  0  0  0  0
    3.3482   -2.2920    0.0000 C   0  0  0  0  0  0  0  0  0
    3.3482   -1.4670    0.0000 C   0  0  0  0  0  0  0  0  0
  1  2  1  0  0  0  0
  2  3  4  0  0  0  0
  2  7  4  0  0  0  0
  3  4  4  0  0  0  0
  4  5  4  0  0  0  0
  5  6  4  0  0  0  0
  5  9  1  0  0  0  0
  6  7  4  0  0  0  0
  7  8  1  0  0  0  0
  9 10  2  0  0  0  0
  9 11  1  0  0  0  0
 11 12  1  0  0  0  0
 12 13  4  0  0  0  0
 12 26  4  0  0  0  0
 13 14  4  0  0  0  0
 14 15  1  0  0  0  0
 14 22  4  0  0  0  0
 15 16  1  0  0  0  0
 15 20  1  0  0  0  0
 16 17  1  0  0  0  0
 17 18  1  0  0  0  0
 18 19  1  0  0  0  0
 18 21  1  0  0  0  0
 19 20  1  0  0  0  0
 22 23  1  0  0  0  0
 22 25  4  0  0  0  0
 23 24  1  0  0  0  0
 25 26  4  0  0  0  0
M  END
>  <Name_Molregno>
24530

>  <5-HT1B>
8.2

>  <5-HT1D>
7.9

>  <5-HT2A>
6.7

$$$$
25409
  Marvin  02231216192D 0   1.00000     0.00000     0

 25 27  0  0  0  0  0  0  0  0999 V2000
    3.1920    3.3219    0.0000 Br  0  0  0  0  0  0  0  0  0
    3.1920    2.4969    0.0000 C   0  0  0  0  0  0  0  0  0
    3.9065    2.0844    0.0000 C   0  0  0  0  0  0  0  0  0
    3.9065    1.2594    0.0000 C   0  0  0  0  0  0  0  0  0
    3.1920    0.8469    0.0000 C   0  0  0  0  0  0  0  0  0
    2.4775    1.2594    0.0000 C   0  0  0  0  0  0  0  0  0
    2.4775    2.0844    0.0000 C   0  0  0  0  0  0  0  0  0
    1.7630    2.4969    0.0000 C   0  0  0  0  0  0  0  0  0
    3.1920    0.0219    0.0000 C   0  0  0  0  0  0  0  0  0
    2.4775   -0.3906    0.0000 O   0  0  0  0  0  0  0  0  0
    3.9065   -0.3906    0.0000 N   0  0  0  0  0  0  0  0  0
    3.9065   -1.2156    0.0000 C   0  0  0  0  0  0  0  0  0
    4.6209   -1.6281    0.0000 C   0  0  0  0  0  0  0  0  0
    4.6209   -2.4531    0.0000 C   0  0  0  0  0  0  0  0  0
    5.3354   -2.8656    0.0000 N   0  0  0  0  0  0  0  0  0
    6.0499   -2.4531    0.0000 C   0  0  0  0  0  0  0  0  0
    6.7643   -2.8656    0.0000 C   0  0  0  0  0  0  0  0  0
    6.7643   -3.6906    0.0000 N   0  0  0  0  0  0  0  0  0
    6.0499   -4.1031    0.0000 C   0  0  0  0  0  0  0  0  0
    5.3354   -3.6906    0.0000 C   0  0  0  0  0  0  0  0  0
    7.4788   -4.1031    0.0000 C   0  0  0  0  0  0  0  0  0
    3.9065   -2.8656    0.0000 C   0  0  0  0  0  0  0  0  0
    3.1920   -2.4531    0.0000 C   0  0  0  0  0  0  0  0  0
    3.1920   -1.6281    0.0000 C   0  0  0  0  0  0  0  0  0
    3.9065   -3.6906    0.0000 C   0  0  0  0  0  0  0  0  0
  1  2  1  0  0  0  0
  2  3  4  0  0  0  0
  2  7  4  0  0  0  0
  3  4  4  0  0  0  0
  4  5  4  0  0  0  0
  5  6  4  0  0  0  0
  5  9  1  0  0  0  0
  6  7  4  0  0  0  0
  7  8  1  0  0  0  0
  9 10  2  0  0  0  0
  9 11  1  0  0  0  0
 11 12  1  0  0  0  0
 12 13  4  0  0  0  0
 12 24  4  0  0  0  0
 13 14  4  0  0  0  0
 14 15  1  0  0  0  0
 14 22  4  0  0  0  0
 15 16  1  0  0  0  0
 15 20  1  0  0  0  0
 16 17  1  0  0  0  0
 17 18  1  0  0  0  0
 18 19  1  0  0  0  0
 18 21  1  0  0  0  0
 19 20  1  0  0  0  0
 22 23  4  0  0  0  0
 22 25  1  0  0  0  0
 23 24  4  0  0  0  0
M  END
>  <Name_Molregno>
25409

>  <5-HT1B>
7.9

>  <5-HT1D>
7.4

>  <5-HT2A>
6.9

$$$$
26085
  Marvin  02231216192D 0   1.00000     0.00000     0

 38 42  0  0  0  0  0  0  0  0999 V2000
  -11.9980   -2.1508    0.0000 O   0  0  0  0  0  0  0  0  0
  -11.2836   -1.7383    0.0000 N   0  0  0  0  0  0  0  0  0
  -10.6705   -2.2903    0.0000 C   0  0  0  0  0  0  0  0  0
  -11.0060   -3.0440    0.0000 N   0  0  0  0  0  0  0  0  0
  -11.8265   -2.9577    0.0000 C   0  0  0  0  0  0  0  0  0
  -12.3785   -3.5708    0.0000 C   0  0  0  0  0  0  0  0  0
   -9.8635   -2.1188    0.0000 C   0  0  0  0  0  0  0  0  0
   -9.6086   -1.3342    0.0000 C   0  0  0  0  0  0  0  0  0
   -8.8016   -1.1626    0.0000 C   0  0  0  0  0  0  0  0  0
   -8.5467   -0.3780    0.0000 C   0  0  0  0  0  0  0  0  0
   -8.2496   -1.7757    0.0000 C   0  0  0  0  0  0  0  0  0
   -8.5045   -2.5603    0.0000 C   0  0  0  0  0  0  0  0  0
   -9.3115   -2.7319    0.0000 C   0  0  0  0  0  0  0  0  0
   -7.4426   -1.6042    0.0000 C   0  0  0  0  0  0  0  0  0
   -7.1877   -0.8196    0.0000 C   0  0  0  0  0  0  0  0  0
   -6.3807   -0.6480    0.0000 C   0  0  0  0  0  0  0  0  0
   -5.8286   -1.2611    0.0000 C   0  0  0  0  0  0  0  0  0
   -6.0836   -2.0458    0.0000 C   0  0  0  0  0  0  0  0  0
   -6.8906   -2.2173    0.0000 C   0  0  0  0  0  0  0  0  0
   -5.0217   -1.0896    0.0000 C   0  0  0  0  0  0  0  0  0
   -4.4696   -1.7027    0.0000 O   0  0  0  0  0  0  0  0  0
   -4.7667   -0.3050    0.0000 N   0  0  0  0  0  0  0  0  0
   -5.2517    0.3624    0.0000 C   0  0  0  0  0  0  0  0  0
   -4.7667    1.0299    0.0000 C   0  0  0  0  0  0  0  0  0
   -3.9821    0.7749    0.0000 C   0  0  0  0  0  0  0  0  0
   -3.2676    1.1874    0.0000 C   0  0  0  0  0  0  0  0  0
   -2.5532    0.7749    0.0000 C   0  0  0  0  0  0  0  0  0
   -1.8387    1.1874    0.0000 O   0  0  0  0  0  0  0  0  0
   -1.8387    2.0124    0.0000 C   0  0  0  0  0  0  0  0  0
   -2.5532   -0.0501    0.0000 C   0  0  0  0  0  0  0  0  0
   -1.8387   -0.4626    0.0000 O   0  0  0  0  0  0  0  0  0
   -1.1242   -0.0501    0.0000 C   0  0  0  0  0  0  0  0  0
   -1.1242    0.7749    0.0000 C   0  0  0  0  0  0  0  0  0
   -0.4098    1.1874    0.0000 N   0  0  0  0  0  0  0  0  0
   -0.4098    2.0124    0.0000 C   0  0  0  0  0  0  0  0  0
    0.3047    0.7749    0.0000 C   0  0  0  0  0  0  0  0  0
   -3.2676   -0.4626    0.0000 C   0  0  0  0  0  0  0  0  0
   -3.9821   -0.0501    0.0000 C   0  0  0  0  0  0  0  0  0
  1  2  4  0  0  0  0
  1  5  4  0  0  0  0
  2  3  4  0  0  0  0
  3  4  4  0  0  0  0
  3  7  1  0  0  0  0
  4  5  4  0  0  0  0
  5  6  1  0  0  0  0
  7  8  4  0  0  0  0
  7 13  4  0  0  0  0
  8  9  4  0  0  0  0
  9 10  1  0  0  0  0
  9 11  4  0  0  0  0
 11 12  4  0  0  0  0
 11 14  1  0  0  0  0
 12 13  4  0  0  0  0
 14 15  4  0  0  0  0
 14 19  4  0  0  0  0
 15 16  4  0  0  0  0
 16 17  4  0  0  0  0
 17 18  4  0  0  0  0
 17 20  1  0  0  0  0
 18 19  4  0  0  0  0
 20 21  2  0  0  0  0
 20 22  1  0  0  0  0
 22 23  1  0  0  0  0
 22 38  1  0  0  0  0
 23 24  1  0  0  0  0
 24 25  1  0  0  0  0
 25 26  4  0  0  0  0
 25 38  4  0  0  0  0
 26 27  4  0  0  0  0
 27 28  1  0  0  0  0
 27 30  4  0  0  0  0
 28 29  1  0  0  0  0
 30 31  1  0  0  0  0
 30 37  4  0  0  0  0
 31 32  1  0  0  0  0
 32 33  1  0  0  0  0
 33 34  1  0  0  0  0
 34 35  1  0  0  0  0
 34 36  1  0  0  0  0
 37 38  4  0  0  0  0
M  END
>  <Name_Molregno>
26085

>  <5-HT1B>
9.3

>  <5-HT1D>
8.3

>  <5-HT2A>
6.5

$$$$
26106
  Marvin  02231216192D 0   1.00000     0.00000     0

 36 39  0  0  0  0  0  0  0  0999 V2000
    9.1536    3.6599    0.0000 O   0  0  0  0  0  0  0  0  0
    8.8986    2.8753    0.0000 N   0  0  0  0  0  0  0  0  0
    8.0736    2.8753    0.0000 C   0  0  0  0  0  0  0  0  0
    7.8187    3.6599    0.0000 N   0  0  0  0  0  0  0  0  0
    8.4861    4.1448    0.0000 C   0  0  0  0  0  0  0  0  0
    8.4861    4.9698    0.0000 C   0  0  0  0  0  0  0  0  0
    7.5887    2.2078    0.0000 C   0  0  0  0  0  0  0  0  0
    7.9243    1.4542    0.0000 C   0  0  0  0  0  0  0  0  0
    7.4393    0.7867    0.0000 C   0  0  0  0  0  0  0  0  0
    7.7749    0.0330    0.0000 C   0  0  0  0  0  0  0  0  0
    6.6189    0.8730    0.0000 C   0  0  0  0  0  0  0  0  0
    6.2833    1.6266    0.0000 C   0  0  0  0  0  0  0  0  0
    6.7682    2.2941    0.0000 C   0  0  0  0  0  0  0  0  0
    6.1339    0.2055    0.0000 C   0  0  0  0  0  0  0  0  0
    6.4695   -0.5482    0.0000 C   0  0  0  0  0  0  0  0  0
    5.9846   -1.2156    0.0000 C   0  0  0  0  0  0  0  0  0
    5.1641   -1.1294    0.0000 C   0  0  0  0  0  0  0  0  0
    4.8285   -0.3757    0.0000 C   0  0  0  0  0  0  0  0  0
    5.3134    0.2918    0.0000 C   0  0  0  0  0  0  0  0  0
    4.6792   -1.7968    0.0000 C   0  0  0  0  0  0  0  0  0
    3.8587   -1.7106    0.0000 O   0  0  0  0  0  0  0  0  0
    5.0147   -2.5505    0.0000 N   0  0  0  0  0  0  0  0  0
    4.5298   -3.2179    0.0000 C   0  0  0  0  0  0  0  0  0
    4.8654   -3.9716    0.0000 C   0  0  0  0  0  0  0  0  0
    4.3804   -4.6390    0.0000 C   0  0  0  0  0  0  0  0  0
    4.7160   -5.3927    0.0000 N   0  0  0  0  0  0  0  0  0
    4.2311   -6.0601    0.0000 C   0  0  0  0  0  0  0  0  0
    4.5666   -6.8138    0.0000 C   0  0  0  0  0  0  0  0  0
    4.0817   -7.4813    0.0000 N   0  0  0  0  0  0  0  0  0
    4.4173   -8.2349    0.0000 C   0  0  0  0  0  0  0  0  0
    3.2612   -7.3950    0.0000 C   0  0  0  0  0  0  0  0  0
    3.5600   -4.5528    0.0000 C   0  0  0  0  0  0  0  0  0
    3.0750   -5.2202    0.0000 O   0  0  0  0  0  0  0  0  0
    2.2545   -5.1340    0.0000 C   0  0  0  0  0  0  0  0  0
    3.2244   -3.7991    0.0000 C   0  0  0  0  0  0  0  0  0
    3.7093   -3.1317    0.0000 C   0  0  0  0  0  0  0  0  0
  1  2  4  0  0  0  0
  1  5  4  0  0  0  0
  2  3  4  0  0  0  0
  3  4  4  0  0  0  0
  3  7  1  0  0  0  0
  4  5  4  0  0  0  0
  5  6  1  0  0  0  0
  7  8  4  0  0  0  0
  7 13  4  0  0  0  0
  8  9  4  0  0  0  0
  9 10  1  0  0  0  0
  9 11  4  0  0  0  0
 11 12  4  0  0  0  0
 11 14  1  0  0  0  0
 12 13  4  0  0  0  0
 14 15  4  0  0  0  0
 14 19  4  0  0  0  0
 15 16  4  0  0  0  0
 16 17  4  0  0  0  0
 17 18  4  0  0  0  0
 17 20  1  0  0  0  0
 18 19  4  0  0  0  0
 20 21  2  0  0  0  0
 20 22  1  0  0  0  0
 22 23  1  0  0  0  0
 23 24  4  0  0  0  0
 23 36  4  0  0  0  0
 24 25  4  0  0  0  0
 25 26  1  0  0  0  0
 25 32  4  0  0  0  0
 26 27  1  0  0  0  0
 27 28  1  0  0  0  0
 28 29  1  0  0  0  0
 29 30  1  0  0  0  0
 29 31  1  0  0  0  0
 32 33  1  0  0  0  0
 32 35  4  0  0  0  0
 33 34  1  0  0  0  0
 35 36  4  0  0  0  0
M  END
>  <Name_Molregno>
26106

>  <5-HT1B>
8.6

>  <5-HT1D>
7.4

>  <5-HT2A>
8.3

$$$$
26118
  Marvin  02231216192D 0   1.00000     0.00000     0

 39 45  0  0  0  0  0  0  0  0999 V2000
   -1.4437   -5.0537    0.0000 O   0  0  0  0  0  0  0  0  0
   -2.2211   -4.7775    0.0000 N   0  0  0  0  0  0  0  0  0
   -2.1987   -3.9528    0.0000 C   0  0  0  0  0  0  0  0  0
   -1.4074   -3.7193    0.0000 N   0  0  0  0  0  0  0  0  0
   -0.9408   -4.3997    0.0000 C   0  0  0  0  0  0  0  0  0
   -0.1161   -4.4221    0.0000 C   0  0  0  0  0  0  0  0  0
   -2.8527   -3.4499    0.0000 C   0  0  0  0  0  0  0  0  0
   -3.6152   -3.7648    0.0000 C   0  0  0  0  0  0  0  0  0
   -4.2692   -3.2619    0.0000 C   0  0  0  0  0  0  0  0  0
   -5.0317   -3.5769    0.0000 C   0  0  0  0  0  0  0  0  0
   -4.1607   -2.4441    0.0000 C   0  0  0  0  0  0  0  0  0
   -3.3981   -2.1292    0.0000 C   0  0  0  0  0  0  0  0  0
   -2.7441   -2.6321    0.0000 C   0  0  0  0  0  0  0  0  0
   -4.8147   -1.9412    0.0000 C   0  0  0  0  0  0  0  0  0
   -5.5772   -2.2561    0.0000 C   0  0  0  0  0  0  0  0  0
   -6.2312   -1.7532    0.0000 C   0  0  0  0  0  0  0  0  0
   -6.1227   -0.9354    0.0000 C   0  0  0  0  0  0  0  0  0
   -5.3601   -0.6205    0.0000 C   0  0  0  0  0  0  0  0  0
   -4.7061   -1.1234    0.0000 C   0  0  0  0  0  0  0  0  0
   -6.7767   -0.4325    0.0000 C   0  0  0  0  0  0  0  0  0
   -7.5392   -0.7474    0.0000 O   0  0  0  0  0  0  0  0  0
   -6.6681    0.3853    0.0000 N   0  0  0  0  0  0  0  0  0
   -5.9427    0.7783    0.0000 C   0  0  0  0  0  0  0  0  0
   -6.0922    1.5896    0.0000 C   0  0  0  0  0  0  0  0  0
   -6.9101    1.6981    0.0000 C   0  0  0  0  0  0  0  0  0
   -7.2660    0.9539    0.0000 C   0  0  0  0  0  0  0  0  0
   -8.0885    0.8900    0.0000 C   0  0  0  0  0  0  0  0  0
   -8.5551    1.5704    0.0000 C   0  0  0  0  0  0  0  0  0
   -8.1992    2.3146    0.0000 C   0  0  0  0  0  0  0  0  0
   -8.7970    2.8831    0.0000 O   0  0  0  0  0  0  0  0  0
   -9.5224    2.4902    0.0000 C   0  0  0  0  0  0  0  0  0
   -9.3729    1.6789    0.0000 C   0  0  0  0  0  0  0  0  0
   -9.1394    0.8876    0.0000 C   0  0  0  0  0  0  0  0  0
   -9.7079    0.2898    0.0000 C   0  0  0  0  0  0  0  0  0
  -10.5099    0.4832    0.0000 N   0  0  0  0  0  0  0  0  0
  -10.7434    1.2745    0.0000 C   0  0  0  0  0  0  0  0  0
  -10.1749    1.8723    0.0000 C   0  0  0  0  0  0  0  0  0
  -11.0785   -0.1147    0.0000 C   0  0  0  0  0  0  0  0  0
   -7.3766    2.3785    0.0000 C   0  0  0  0  0  0  0  0  0
  1  2  4  0  0  0  0
  1  5  4  0  0  0  0
  2  3  4  0  0  0  0
  3  4  4  0  0  0  0
  3  7  1  0  0  0  0
  4  5  4  0  0  0  0
  5  6  1  0  0  0  0
  7  8  4  0  0  0  0
  7 13  4  0  0  0  0
  8  9  4  0  0  0  0
  9 10  1  0  0  0  0
  9 11  4  0  0  0  0
 11 12  4  0  0  0  0
 11 14  1  0  0  0  0
 12 13  4  0  0  0  0
 14 15  4  0  0  0  0
 14 19  4  0  0  0  0
 15 16  4  0  0  0  0
 16 17  4  0  0  0  0
 17 18  4  0  0  0  0
 17 20  1  0  0  0  0
 18 19  4  0  0  0  0
 20 21  2  0  0  0  0
 20 22  1  0  0  0  0
 22 23  1  0  0  0  0
 22 26  1  0  0  0  0
 23 24  1  0  0  0  0
 24 25  1  0  0  0  0
 25 26  4  0  0  0  0
 25 39  4  0  0  0  0
 26 27  4  0  0  0  0
 27 28  4  0  0  0  0
 28 29  4  0  0  0  0
 28 32  1  0  0  0  0
 29 30  1  0  0  0  0
 29 39  4  0  0  0  0
 30 31  1  0  0  0  0
 31 32  1  0  0  0  0
 32 33  1  0  0  0  0
 32 37  1  0  0  0  0
 33 34  1  0  0  0  0
 34 35  1  0  0  0  0
 35 36  1  0  0  0  0
 35 38  1  0  0  0  0
 36 37  1  0  0  0  0
M  END
>  <Name_Molregno>
26118

>  <5-HT1A>
6

>  <5-HT1B>
8.1

>  <5-HT1D>
6.36

>  <5-HT1E>
5

>  <5-HT2A>
5.67

>  <5-HT2C>
5.95

>  <5-HT6>
5.67

>  <5-HT7>
6

$$$$
26144
  Marvin  02231216192D 0   1.00000     0.00000     0

 24 26  0  0  0  0  0  0  0  0999 V2000
    3.0131    5.4000    0.0000 Br  0  0  0  0  0  0  0  0  0
    3.0131    4.5750    0.0000 C   0  0  0  0  0  0  0  0  0
    3.7275    4.1625    0.0000 C   0  0  0  0  0  0  0  0  0
    3.7275    3.3375    0.0000 C   0  0  0  0  0  0  0  0  0
    3.0131    2.9250    0.0000 C   0  0  0  0  0  0  0  0  0
    2.2986    3.3375    0.0000 C   0  0  0  0  0  0  0  0  0
    2.2986    4.1625    0.0000 C   0  0  0  0  0  0  0  0  0
    1.5841    4.5750    0.0000 C   0  0  0  0  0  0  0  0  0
    3.0131    2.1000    0.0000 C   0  0  0  0  0  0  0  0  0
    2.2986    1.6875    0.0000 O   0  0  0  0  0  0  0  0  0
    3.7275    1.6875    0.0000 N   0  0  0  0  0  0  0  0  0
    3.7275    0.8625    0.0000 C   0  0  0  0  0  0  0  0  0
    4.4420    0.4500    0.0000 C   0  0  0  0  0  0  0  0  0
    4.4420   -0.3750    0.0000 C   0  0  0  0  0  0  0  0  0
    5.1565   -0.7875    0.0000 N   0  0  0  0  0  0  0  0  0
    5.8709   -0.3750    0.0000 C   0  0  0  0  0  0  0  0  0
    6.5854   -0.7875    0.0000 C   0  0  0  0  0  0  0  0  0
    6.5854   -1.6125    0.0000 N   0  0  0  0  0  0  0  0  0
    5.8709   -2.0250    0.0000 C   0  0  0  0  0  0  0  0  0
    5.1565   -1.6125    0.0000 C   0  0  0  0  0  0  0  0  0
    7.2999   -2.0250    0.0000 C   0  0  0  0  0  0  0  0  0
    3.7275   -0.7875    0.0000 C   0  0  0  0  0  0  0  0  0
    3.0131   -0.3750    0.0000 C   0  0  0  0  0  0  0  0  0
    3.0131    0.4500    0.0000 C   0  0  0  0  0  0  0  0  0
  1  2  1  0  0  0  0
  2  3  4  0  0  0  0
  2  7  4  0  0  0  0
  3  4  4  0  0  0  0
  4  5  4  0  0  0  0
  5  6  4  0  0  0  0
  5  9  1  0  0  0  0
  6  7  4  0  0  0  0
  7  8  1  0  0  0  0
  9 10  2  0  0  0  0
  9 11  1  0  0  0  0
 11 12  1  0  0  0  0
 12 13  4  0  0  0  0
 12 24  4  0  0  0  0
 13 14  4  0  0  0  0
 14 15  1  0  0  0  0
 14 22  4  0  0  0  0
 15 16  1  0  0  0  0
 15 20  1  0  0  0  0
 16 17  1  0  0  0  0
 17 18  1  0  0  0  0
 18 19  1  0  0  0  0
 18 21  1  0  0  0  0
 19 20  1  0  0  0  0
 22 23  4  0  0  0  0
 23 24  4  0  0  0  0
M  END
>  <Name_Molregno>
26144

>  <5-HT1B>
6.9

>  <5-HT1D>
6.7

>  <5-HT2A>
6.5

$$$$
26180
  Marvin  02231216192D 0   1.00000     0.00000     0

 36 39  0  0  0  0  0  0  0  0999 V2000
    9.1536    3.6599    0.0000 O   0  0  0  0  0  0  0  0  0
    8.8986    2.8753    0.0000 N   0  0  0  0  0  0  0  0  0
    8.0736    2.8753    0.0000 C   0  0  0  0  0  0  0  0  0
    7.8187    3.6599    0.0000 N   0  0  0  0  0  0  0  0  0
    8.4861    4.1448    0.0000 C   0  0  0  0  0  0  0  0  0
    8.4861    4.9698    0.0000 C   0  0  0  0  0  0  0  0  0
    7.5887    2.2078    0.0000 C   0  0  0  0  0  0  0  0  0
    7.9243    1.4542    0.0000 C   0  0  0  0  0  0  0  0  0
    7.4393    0.7867    0.0000 C   0  0  0  0  0  0  0  0  0
    7.7749    0.0330    0.0000 C   0  0  0  0  0  0  0  0  0
    6.6189    0.8730    0.0000 C   0  0  0  0  0  0  0  0  0
    6.2833    1.6266    0.0000 C   0  0  0  0  0  0  0  0  0
    6.7682    2.2941    0.0000 C   0  0  0  0  0  0  0  0  0
    6.1339    0.2055    0.0000 C   0  0  0  0  0  0  0  0  0
    6.4695   -0.5482    0.0000 C   0  0  0  0  0  0  0  0  0
    5.9846   -1.2156    0.0000 C   0  0  0  0  0  0  0  0  0
    5.1641   -1.1294    0.0000 C   0  0  0  0  0  0  0  0  0
    4.8285   -0.3757    0.0000 C   0  0  0  0  0  0  0  0  0
    5.3134    0.2918    0.0000 C   0  0  0  0  0  0  0  0  0
    4.6792   -1.7968    0.0000 C   0  0  0  0  0  0  0  0  0
    3.8587   -1.7106    0.0000 O   0  0  0  0  0  0  0  0  0
    5.0147   -2.5505    0.0000 N   0  0  0  0  0  0  0  0  0
    4.5298   -3.2179    0.0000 C   0  0  0  0  0  0  0  0  0
    4.8654   -3.9716    0.0000 C   0  0  0  0  0  0  0  0  0
    4.3804   -4.6390    0.0000 C   0  0  0  0  0  0  0  0  0
    4.7160   -5.3927    0.0000 O   0  0  0  0  0  0  0  0  0
    4.2311   -6.0601    0.0000 C   0  0  0  0  0  0  0  0  0
    4.5666   -6.8138    0.0000 C   0  0  0  0  0  0  0  0  0
    4.0817   -7.4813    0.0000 N   0  0  0  0  0  0  0  0  0
    4.4173   -8.2349    0.0000 C   0  0  0  0  0  0  0  0  0
    3.2612   -7.3950    0.0000 C   0  0  0  0  0  0  0  0  0
    3.5600   -4.5528    0.0000 C   0  0  0  0  0  0  0  0  0
    3.0750   -5.2202    0.0000 O   0  0  0  0  0  0  0  0  0
    2.2545   -5.1340    0.0000 C   0  0  0  0  0  0  0  0  0
    3.2244   -3.7991    0.0000 C   0  0  0  0  0  0  0  0  0
    3.7093   -3.1317    0.0000 C   0  0  0  0  0  0  0  0  0
  1  2  4  0  0  0  0
  1  5  4  0  0  0  0
  2  3  4  0  0  0  0
  3  4  4  0  0  0  0
  3  7  1  0  0  0  0
  4  5  4  0  0  0  0
  5  6  1  0  0  0  0
  7  8  4  0  0  0  0
  7 13  4  0  0  0  0
  8  9  4  0  0  0  0
  9 10  1  0  0  0  0
  9 11  4  0  0  0  0
 11 12  4  0  0  0  0
 11 14  1  0  0  0  0
 12 13  4  0  0  0  0
 14 15  4  0  0  0  0
 14 19  4  0  0  0  0
 15 16  4  0  0  0  0
 16 17  4  0  0  0  0
 17 18  4  0  0  0  0
 17 20  1  0  0  0  0
 18 19  4  0  0  0  0
 20 21  2  0  0  0  0
 20 22  1  0  0  0  0
 22 23  1  0  0  0  0
 23 24  4  0  0  0  0
 23 36  4  0  0  0  0
 24 25  4  0  0  0  0
 25 26  1  0  0  0  0
 25 32  4  0  0  0  0
 26 27  1  0  0  0  0
 27 28  1  0  0  0  0
 28 29  1  0  0  0  0
 29 30  1  0  0  0  0
 29 31  1  0  0  0  0
 32 33  1  0  0  0  0
 32 35  4  0  0  0  0
 33 34  1  0  0  0  0
 35 36  4  0  0  0  0
M  END
>  <Name_Molregno>
26180

>  <5-HT1A>
6.3

>  <5-HT1B>
8.7

>  <5-HT1D>
7.67

>  <5-HT1E>
6

>  <5-HT2A>
7.3

>  <5-HT2C>
6.8

>  <5-HT6>
5.5

>  <5-HT7>
5

$$$$
26262
  Marvin  02231216192D 0   1.00000     0.00000     0

 36 39  0  0  0  0  0  0  0  0999 V2000
    9.1536    3.6599    0.0000 O   0  0  0  0  0  0  0  0  0
    8.8986    2.8753    0.0000 N   0  0  0  0  0  0  0  0  0
    8.0736    2.8753    0.0000 C   0  0  0  0  0  0  0  0  0
    7.8187    3.6599    0.0000 N   0  0  0  0  0  0  0  0  0
    8.4861    4.1448    0.0000 C   0  0  0  0  0  0  0  0  0
    8.4861    4.9698    0.0000 C   0  0  0  0  0  0  0  0  0
    7.5887    2.2078    0.0000 C   0  0  0  0  0  0  0  0  0
    7.9243    1.4542    0.0000 C   0  0  0  0  0  0  0  0  0
    7.4393    0.7867    0.0000 C   0  0  0  0  0  0  0  0  0
    7.7749    0.0330    0.0000 C   0  0  0  0  0  0  0  0  0
    6.6189    0.8730    0.0000 C   0  0  0  0  0  0  0  0  0
    6.2833    1.6266    0.0000 C   0  0  0  0  0  0  0  0  0
    6.7682    2.2941    0.0000 C   0  0  0  0  0  0  0  0  0
    6.1339    0.2055    0.0000 C   0  0  0  0  0  0  0  0  0
    6.4695   -0.5482    0.0000 C   0  0  0  0  0  0  0  0  0
    5.9846   -1.2156    0.0000 C   0  0  0  0  0  0  0  0  0
    5.1641   -1.1294    0.0000 C   0  0  0  0  0  0  0  0  0
    4.8285   -0.3757    0.0000 C   0  0  0  0  0  0  0  0  0
    5.3134    0.2918    0.0000 C   0  0  0  0  0  0  0  0  0
    4.6792   -1.7968    0.0000 C   0  0  0  0  0  0  0  0  0
    3.8587   -1.7106    0.0000 O   0  0  0  0  0  0  0  0  0
    5.0147   -2.5505    0.0000 N   0  0  0  0  0  0  0  0  0
    4.5298   -3.2179    0.0000 C   0  0  0  0  0  0  0  0  0
    4.8654   -3.9716    0.0000 C   0  0  0  0  0  0  0  0  0
    4.3804   -4.6390    0.0000 C   0  0  0  0  0  0  0  0  0
    4.7160   -5.3927    0.0000 C   0  0  0  0  0  0  0  0  0
    4.2311   -6.0601    0.0000 C   0  0  0  0  0  0  0  0  0
    4.5666   -6.8138    0.0000 C   0  0  0  0  0  0  0  0  0
    4.0817   -7.4813    0.0000 N   0  0  0  0  0  0  0  0  0
    4.4173   -8.2349    0.0000 C   0  0  0  0  0  0  0  0  0
    3.2612   -7.3950    0.0000 C   0  0  0  0  0  0  0  0  0
    3.5600   -4.5528    0.0000 C   0  0  0  0  0  0  0  0  0
    3.0750   -5.2202    0.0000 O   0  0  0  0  0  0  0  0  0
    2.2545   -5.1340    0.0000 C   0  0  0  0  0  0  0  0  0
    3.2244   -3.7991    0.0000 C   0  0  0  0  0  0  0  0  0
    3.7093   -3.1317    0.0000 C   0  0  0  0  0  0  0  0  0
  1  2  4  0  0  0  0
  1  5  4  0  0  0  0
  2  3  4  0  0  0  0
  3  4  4  0  0  0  0
  3  7  1  0  0  0  0
  4  5  4  0  0  0  0
  5  6  1  0  0  0  0
  7  8  4  0  0  0  0
  7 13  4  0  0  0  0
  8  9  4  0  0  0  0
  9 10  1  0  0  0  0
  9 11  4  0  0  0  0
 11 12  4  0  0  0  0
 11 14  1  0  0  0  0
 12 13  4  0  0  0  0
 14 15  4  0  0  0  0
 14 19  4  0  0  0  0
 15 16  4  0  0  0  0
 16 17  4  0  0  0  0
 17 18  4  0  0  0  0
 17 20  1  0  0  0  0
 18 19  4  0  0  0  0
 20 21  2  0  0  0  0
 20 22  1  0  0  0  0
 22 23  1  0  0  0  0
 23 24  4  0  0  0  0
 23 36  4  0  0  0  0
 24 25  4  0  0  0  0
 25 26  1  0  0  0  0
 25 32  4  0  0  0  0
 26 27  1  0  0  0  0
 27 28  1  0  0  0  0
 28 29  1  0  0  0  0
 29 30  1  0  0  0  0
 29 31  1  0  0  0  0
 32 33  1  0  0  0  0
 32 35  4  0  0  0  0
 33 34  1  0  0  0  0
 35 36  4  0  0  0  0
M  END
>  <Name_Molregno>
26262

>  <5-HT1B>
8.5

>  <5-HT1D>
7

>  <5-HT2A>
8.2

$$$$
26293
  Marvin  02231216192D 0   1.00000     0.00000     0

 37 41  0  0  0  0  0  0  0  0999 V2000
   11.3076    3.4626    0.0000 O   0  0  0  0  0  0  0  0  0
   10.7555    2.8495    0.0000 N   0  0  0  0  0  0  0  0  0
   10.0019    3.1851    0.0000 C   0  0  0  0  0  0  0  0  0
   10.0881    4.0056    0.0000 N   0  0  0  0  0  0  0  0  0
   10.8951    4.1771    0.0000 C   0  0  0  0  0  0  0  0  0
   11.2306    4.9308    0.0000 C   0  0  0  0  0  0  0  0  0
    9.2874    2.7726    0.0000 C   0  0  0  0  0  0  0  0  0
    9.2874    1.9476    0.0000 C   0  0  0  0  0  0  0  0  0
    8.5729    1.5351    0.0000 C   0  0  0  0  0  0  0  0  0
    8.5729    0.7101    0.0000 C   0  0  0  0  0  0  0  0  0
    7.8585    1.9476    0.0000 C   0  0  0  0  0  0  0  0  0
    7.8585    2.7726    0.0000 C   0  0  0  0  0  0  0  0  0
    8.5729    3.1851    0.0000 C   0  0  0  0  0  0  0  0  0
    7.1440    1.5351    0.0000 C   0  0  0  0  0  0  0  0  0
    7.1440    0.7101    0.0000 C   0  0  0  0  0  0  0  0  0
    6.4295    0.2976    0.0000 C   0  0  0  0  0  0  0  0  0
    5.7150    0.7101    0.0000 C   0  0  0  0  0  0  0  0  0
    5.7150    1.5351    0.0000 C   0  0  0  0  0  0  0  0  0
    6.4295    1.9476    0.0000 C   0  0  0  0  0  0  0  0  0
    5.0006    0.2976    0.0000 C   0  0  0  0  0  0  0  0  0
    4.2861    0.7101    0.0000 O   0  0  0  0  0  0  0  0  0
    5.0006   -0.5274    0.0000 N   0  0  0  0  0  0  0  0  0
    4.2861   -0.9399    0.0000 C   0  0  0  0  0  0  0  0  0
    4.2861   -1.7649    0.0000 C   0  0  0  0  0  0  0  0  0
    3.5716   -2.1774    0.0000 C   0  0  0  0  0  0  0  0  0
    3.5716   -3.0024    0.0000 O   0  0  0  0  0  0  0  0  0
    2.8572   -3.4149    0.0000 C   0  0  0  0  0  0  0  0  0
    2.8572   -4.2399    0.0000 C   0  0  0  0  0  0  0  0  0
    2.1427   -4.6524    0.0000 N   0  0  0  0  0  0  0  0  0
    2.1427   -5.4774    0.0000 C   0  0  0  0  0  0  0  0  0
    1.4282   -4.2399    0.0000 C   0  0  0  0  0  0  0  0  0
    2.8572   -1.7649    0.0000 C   0  0  0  0  0  0  0  0  0
    2.0725   -2.0199    0.0000 O   0  0  0  0  0  0  0  0  0
    1.5876   -1.3524    0.0000 C   0  0  0  0  0  0  0  0  0
    2.0725   -0.6850    0.0000 C   0  0  0  0  0  0  0  0  0
    2.8572   -0.9399    0.0000 C   0  0  0  0  0  0  0  0  0
    3.5716   -0.5274    0.0000 C   0  0  0  0  0  0  0  0  0
  1  2  4  0  0  0  0
  1  5  4  0  0  0  0
  2  3  4  0  0  0  0
  3  4  4  0  0  0  0
  3  7  1  0  0  0  0
  4  5  4  0  0  0  0
  5  6  1  0  0  0  0
  7  8  4  0  0  0  0
  7 13  4  0  0  0  0
  8  9  4  0  0  0  0
  9 10  1  0  0  0  0
  9 11  4  0  0  0  0
 11 12  4  0  0  0  0
 11 14  1  0  0  0  0
 12 13  4  0  0  0  0
 14 15  4  0  0  0  0
 14 19  4  0  0  0  0
 15 16  4  0  0  0  0
 16 17  4  0  0  0  0
 17 18  4  0  0  0  0
 17 20  1  0  0  0  0
 18 19  4  0  0  0  0
 20 21  2  0  0  0  0
 20 22  1  0  0  0  0
 22 23  1  0  0  0  0
 23 24  4  0  0  0  0
 23 37  4  0  0  0  0
 24 25  4  0  0  0  0
 25 26  1  0  0  0  0
 25 32  4  0  0  0  0
 26 27  1  0  0  0  0
 27 28  1  0  0  0  0
 28 29  1  0  0  0  0
 29 30  1  0  0  0  0
 29 31  1  0  0  0  0
 32 33  1  0  0  0  0
 32 36  4  0  0  0  0
 33 34  1  0  0  0  0
 34 35  1  0  0  0  0
 35 36  1  0  0  0  0
 36 37  4  0  0  0  0
M  END
>  <Name_Molregno>
26293

>  <5-HT1B>
8.8

>  <5-HT1D>
7.6

>  <5-HT2A>
7.3

$$$$
26294
  Marvin  02231216192D 0   1.00000     0.00000     0

 37 41  0  0  0  0  0  0  0  0999 V2000
    0.5069    1.0922    0.0000 O   0  0  0  0  0  0  0  0  0
    1.3139    0.9207    0.0000 N   0  0  0  0  0  0  0  0  0
    1.4001    0.1002    0.0000 C   0  0  0  0  0  0  0  0  0
    0.6464   -0.2354    0.0000 N   0  0  0  0  0  0  0  0  0
    0.0944    0.3777    0.0000 C   0  0  0  0  0  0  0  0  0
   -0.7261    0.2915    0.0000 C   0  0  0  0  0  0  0  0  0
    2.1146   -0.3123    0.0000 C   0  0  0  0  0  0  0  0  0
    2.8291    0.1002    0.0000 C   0  0  0  0  0  0  0  0  0
    3.5435   -0.3123    0.0000 C   0  0  0  0  0  0  0  0  0
    4.2580    0.1002    0.0000 C   0  0  0  0  0  0  0  0  0
    3.5435   -1.1373    0.0000 C   0  0  0  0  0  0  0  0  0
    2.8291   -1.5498    0.0000 C   0  0  0  0  0  0  0  0  0
    2.1146   -1.1373    0.0000 C   0  0  0  0  0  0  0  0  0
    4.2580   -1.5498    0.0000 C   0  0  0  0  0  0  0  0  0
    4.9725   -1.1373    0.0000 C   0  0  0  0  0  0  0  0  0
    5.6869   -1.5498    0.0000 C   0  0  0  0  0  0  0  0  0
    5.6869   -2.3748    0.0000 C   0  0  0  0  0  0  0  0  0
    4.9725   -2.7873    0.0000 C   0  0  0  0  0  0  0  0  0
    4.2580   -2.3748    0.0000 C   0  0  0  0  0  0  0  0  0
    6.4014   -2.7873    0.0000 C   0  0  0  0  0  0  0  0  0
    6.4014   -3.6123    0.0000 O   0  0  0  0  0  0  0  0  0
    7.1159   -2.3748    0.0000 N   0  0  0  0  0  0  0  0  0
    7.8304   -2.7873    0.0000 C   0  0  0  0  0  0  0  0  0
    8.5448   -2.3748    0.0000 C   0  0  0  0  0  0  0  0  0
    9.2593   -2.7873    0.0000 C   0  0  0  0  0  0  0  0  0
    9.9738   -2.3748    0.0000 N   0  0  0  0  0  0  0  0  0
   10.6882   -2.7873    0.0000 C   0  0  0  0  0  0  0  0  0
   10.6882   -3.6123    0.0000 C   0  0  0  0  0  0  0  0  0
    9.9738   -4.0248    0.0000 O   0  0  0  0  0  0  0  0  0
    9.2593   -3.6123    0.0000 C   0  0  0  0  0  0  0  0  0
    8.5448   -4.0248    0.0000 C   0  0  0  0  0  0  0  0  0
    7.8304   -3.6123    0.0000 C   0  0  0  0  0  0  0  0  0
    9.9738   -1.5498    0.0000 C   0  0  0  0  0  0  0  0  0
    9.2593   -1.1373    0.0000 C   0  0  0  0  0  0  0  0  0
    9.2593   -0.3123    0.0000 N   0  0  0  0  0  0  0  0  0
    9.9738    0.1002    0.0000 C   0  0  0  0  0  0  0  0  0
    8.5448    0.1002    0.0000 C   0  0  0  0  0  0  0  0  0
  1  2  4  0  0  0  0
  1  5  4  0  0  0  0
  2  3  4  0  0  0  0
  3  4  4  0  0  0  0
  3  7  1  0  0  0  0
  4  5  4  0  0  0  0
  5  6  1  0  0  0  0
  7  8  4  0  0  0  0
  7 13  4  0  0  0  0
  8  9  4  0  0  0  0
  9 10  1  0  0  0  0
  9 11  4  0  0  0  0
 11 12  4  0  0  0  0
 11 14  1  0  0  0  0
 12 13  4  0  0  0  0
 14 15  4  0  0  0  0
 14 19  4  0  0  0  0
 15 16  4  0  0  0  0
 16 17  4  0  0  0  0
 17 18  4  0  0  0  0
 17 20  1  0  0  0  0
 18 19  4  0  0  0  0
 20 21  2  0  0  0  0
 20 22  1  0  0  0  0
 22 23  1  0  0  0  0
 23 24  4  0  0  0  0
 23 32  4  0  0  0  0
 24 25  4  0  0  0  0
 25 26  1  0  0  0  0
 25 30  4  0  0  0  0
 26 27  1  0  0  0  0
 26 33  1  0  0  0  0
 27 28  1  0  0  0  0
 28 29  1  0  0  0  0
 29 30  1  0  0  0  0
 30 31  4  0  0  0  0
 31 32  4  0  0  0  0
 33 34  1  0  0  0  0
 34 35  1  0  0  0  0
 35 36  1  0  0  0  0
 35 37  1  0  0  0  0
M  END
>  <Name_Molregno>
26294

>  <5-HT1B>
8.6

>  <5-HT1D>
7.7

>  <5-HT2A>
8.4

$$$$
26653
  Marvin  02231216192D 0   1.00000     0.00000     0

 19 20  0  0  0  0  0  0  0  0999 V2000
   -1.2820   -3.8402    0.0000 S   0  0  0  0  0  0  0  0  0
   -1.6945   -3.1258    0.0000 N   0  0  0  0  0  0  0  0  0
   -1.1424   -2.5127    0.0000 C   0  0  0  0  0  0  0  0  0
   -1.3140   -1.7057    0.0000 C   0  0  0  0  0  0  0  0  0
   -2.0986   -1.4508    0.0000 C   0  0  0  0  0  0  0  0  0
   -2.2701   -0.6438    0.0000 N   0  0  0  0  0  0  0  0  0
   -1.6570   -0.0918    0.0000 C   0  0  0  0  0  0  0  0  0
   -0.8724   -0.3467    0.0000 C   0  0  0  0  0  0  0  0  0
   -0.7009   -1.1537    0.0000 C   0  0  0  0  0  0  0  0  0
   -3.0547   -0.3889    0.0000 C   0  0  0  0  0  0  0  0  0
   -0.3888   -2.8482    0.0000 C   0  0  0  0  0  0  0  0  0
    0.3257   -2.4357    0.0000 O   0  0  0  0  0  0  0  0  0
    1.0402   -2.8482    0.0000 C   0  0  0  0  0  0  0  0  0
    1.7547   -2.4357    0.0000 C   0  0  0  0  0  0  0  0  0
    2.4691   -2.8482    0.0000 C   0  0  0  0  0  0  0  0  0
    3.1836   -2.4357    0.0000 C   0  0  0  0  0  0  0  0  0
    3.8981   -2.8482    0.0000 C   0  0  0  0  0  0  0  0  0
    4.6125   -2.4357    0.0000 C   0  0  0  0  0  0  0  0  0
   -0.4750   -3.6687    0.0000 N   0  0  0  0  0  0  0  0  0
  1  2  4  0  0  0  0
  1 19  4  0  0  0  0
  2  3  4  0  0  0  0
  3  4  1  0  0  0  0
  3 11  4  0  0  0  0
  4  5  1  0  0  0  0
  4  9  2  0  0  0  0
  5  6  1  0  0  0  0
  6  7  1  0  0  0  0
  6 10  1  0  0  0  0
  7  8  1  0  0  0  0
  8  9  1  0  0  0  0
 11 12  1  0  0  0  0
 11 19  4  0  0  0  0
 12 13  1  0  0  0  0
 13 14  1  0  0  0  0
 14 15  1  0  0  0  0
 15 16  1  0  0  0  0
 16 17  1  0  0  0  0
 17 18  1  0  0  0  0
M  END
>  <Name_Molregno>
26653

>  <5-HT1A>
7.2

>  <5-HT1B>
7.3

>  <5-HT1D>
8.2

>  <5-HT1E>
5.6

>  <5-HT2A>
6.9

>  <5-HT2C>
7.4

>  <5-HT6>
5.9

>  <5-HT7>
6.9

>  <Alpha-1B>
5.8

>  <DOPAMINE D2>
6

>  <DOPAMINE D3>
6.4

>  <Muscarinic acetylcholine receptor M1>
6.52

>  <Muscarinic acetylcholine receptor M2>
7.1

>  <Muscarinic acetylcholine receptor M3>
7.25

>  <Muscarinic acetylcholine receptor M4>
7.55

>  <Muscarinic acetylcholine receptor M5>
6.32

$$$$
32833
  Marvin  02231216192D 0   1.00000     0.00000     0

 17 19  0  0  1  0  0  0  0  0999 V2000
   -1.6280    0.0143    0.0000 O   0  0  0  0  0  0  0  0  0
   -2.0179   -0.7127    0.0000 C   0  0  0  0  0  0  0  0  0
   -1.5833   -1.4139    0.0000 C   0  0  0  0  0  0  0  0  0
   -0.7587   -1.3882    0.0000 C   0  0  0  0  0  0  0  0  0
   -0.3241   -2.0894    0.0000 C   0  0  0  0  0  0  0  0  0
    0.4771   -1.8928    0.0000 N   0  0  0  0  0  0  0  0  0
    0.5377   -1.0700    0.0000 C   0  0  0  0  0  0  0  0  0
   -0.2261   -0.7581    0.0000 C   0  0  0  0  0  0  0  0  0
    1.1071   -2.4254    0.0000 C   0  0  0  0  0  0  0  0  0
    1.8834   -2.1461    0.0000 C   0  0  0  0  0  0  0  0  0
    2.5134   -2.6787    0.0000 C   0  0  0  0  0  0  0  0  0
   -0.7141   -2.8164    0.0000 C   0  0  0  0  0  0  0  0  0
   -1.5387   -2.8422    0.0000 C   0  0  0  0  0  0  0  0  0
   -1.9733   -2.1409    0.0000 C   0  0  0  0  0  0  0  0  0
   -2.7979   -2.1667    0.0000 C   0  0  0  0  0  0  0  0  0
   -3.2325   -1.4654    0.0000 C   0  0  0  0  0  0  0  0  0
   -2.8425   -0.7384    0.0000 C   0  0  0  0  0  0  0  0  0
  1  2  1  0  0  0  0
  2  3  4  0  0  0  0
  2 17  4  0  0  0  0
  3  4  1  0  0  0  0
  3 14  4  0  0  0  0
  4  5  1  0  0  0  0
  4  8  1  0  0  0  0
  5  6  1  0  0  0  0
  5 12  1  0  0  0  0
  6  7  1  0  0  0  0
  6  9  1  0  0  0  0
  7  8  1  0  0  0  0
  9 10  1  0  0  0  0
 10 11  1  0  0  0  0
 12 13  1  0  0  0  0
 13 14  1  0  0  0  0
 14 15  4  0  0  0  0
 15 16  4  0  0  0  0
 16 17  4  0  0  0  0
M  END
>  <Name_Molregno>
32833

>  <5-HT1A>
9.7

>  <5-HT2A>
5.79

>  <5-HT2C>
5.79

>  <DOPAMINE D3>
5.32

>  <DOPAMINE D4>
5.39

$$$$
35324
  Marvin  02231216192D 0   1.00000     0.00000     0

 18 19  0  0  1  0  0  0  0  0999 V2000
    0.9450   -1.8585    0.0000 O   0  0  0  0  0  0  0  0  0
    0.5325   -1.1440    0.0000 C   0  0  0  0  0  0  0  0  0
   -0.2925   -1.1440    0.0000 C   0  0  0  0  0  0  0  0  0
   -0.7050   -1.8585    0.0000 C   0  0  0  0  0  0  0  0  0
   -1.5300   -1.8585    0.0000 C   0  0  0  0  0  0  0  0  0
   -1.9425   -2.5729    0.0000 N   0  0  0  0  0  0  0  0  0
   -2.7675   -2.5729    0.0000 C   0  0  0  0  0  0  0  0  0
   -3.1800   -3.2874    0.0000 C   0  0  0  0  0  0  0  0  0
   -4.0050   -3.2874    0.0000 C   0  0  0  0  0  0  0  0  0
   -1.5300   -3.2874    0.0000 C   0  0  0  0  0  0  0  0  0
   -0.7050   -3.2874    0.0000 C   0  0  0  0  0  0  0  0  0
   -0.2925   -4.0019    0.0000 C   0  0  0  0  0  0  0  0  0
   -1.9425   -1.1440    0.0000 C   0  0  0  0  0  0  0  0  0
   -1.5300   -0.4295    0.0000 C   0  0  0  0  0  0  0  0  0
   -0.7050   -0.4295    0.0000 C   0  0  0  0  0  0  0  0  0
   -0.2925    0.2849    0.0000 C   0  0  0  0  0  0  0  0  0
    0.5325    0.2849    0.0000 C   0  0  0  0  0  0  0  0  0
    0.9450   -0.4295    0.0000 C   0  0  0  0  0  0  0  0  0
  1  2  1  0  0  0  0
  2  3  4  0  0  0  0
  2 18  4  0  0  0  0
  3  4  1  0  0  0  0
  3 15  4  0  0  0  0
  4  5  1  0  0  0  0
  5  6  1  0  0  0  0
  5 13  1  0  0  0  0
  6  7  1  0  0  0  0
  6 10  1  0  0  0  0
  7  8  1  0  0  0  0
  8  9  1  0  0  0  0
 10 11  1  0  0  0  0
 11 12  1  0  0  0  0
 13 14  1  0  0  0  0
 14 15  1  0  0  0  0
 15 16  4  0  0  0  0
 16 17  4  0  0  0  0
 17 18  4  0  0  0  0
M  END
>  <Name_Molregno>
35324

>  <5-HT1A>
8.41

>  <5-HT1B>
6.44

>  <5-HT1D>
6.48

>  <5-HT1E>
5.78

>  <5-HT2A>
5.34

>  <5-HT2C>
5.46

>  <5-HT5>
5.6

>  <5-HT6>
5

>  <5-HT7>
6.52

>  <Alpha-1A>
6.21

>  <Alpha-1B>
6

>  <DOPAMINE D1>
5

>  <DOPAMINE D2>
6.1

>  <DOPAMINE D3>
6.35

>  <DOPAMINE D4>
5.38

$$$$
35617
  Marvin  02231216192D 0   1.00000     0.00000     0

 18 20  0  0  0  0  0  0  0  0999 V2000
    0.4381   -0.2565    0.0000 O   0  0  0  0  0  0  0  0  0
    0.0035    0.4447    0.0000 C   0  0  0  0  0  0  0  0  0
    0.3935    1.1717    0.0000 C   0  0  0  0  0  0  0  0  0
    1.2181    1.1975    0.0000 C   0  0  0  0  0  0  0  0  0
    1.6527    0.4963    0.0000 C   0  0  0  0  0  0  0  0  0
    2.4773    0.5220    0.0000 C   0  0  0  0  0  0  0  0  0
    2.9119   -0.1792    0.0000 C   0  0  0  0  0  0  0  0  0
    3.7132    0.0174    0.0000 N   0  0  0  0  0  0  0  0  0
    3.7737    0.8402    0.0000 C   0  0  0  0  0  0  0  0  0
    3.0099    1.1520    0.0000 C   0  0  0  0  0  0  0  0  0
    2.8133    1.9533    0.0000 C   0  0  0  0  0  0  0  0  0
    2.0211    2.1836    0.0000 C   0  0  0  0  0  0  0  0  0
    1.8244    2.9848    0.0000 N   0  0  0  0  0  0  0  0  0
    1.0322    3.2151    0.0000 C   0  0  0  0  0  0  0  0  0
    2.4200    3.5557    0.0000 C   0  0  0  0  0  0  0  0  0
    2.5219   -0.9062    0.0000 C   0  0  0  0  0  0  0  0  0
    1.6973   -0.9320    0.0000 C   0  0  0  0  0  0  0  0  0
    1.2627   -0.2308    0.0000 C   0  0  0  0  0  0  0  0  0
  1  2  1  0  0  0  0
  1 18  1  0  0  0  0
  2  3  1  0  0  0  0
  3  4  1  0  0  0  0
  4  5  1  0  0  0  0
  5  6  4  0  0  0  0
  5 18  4  0  0  0  0
  6  7  4  0  0  0  0
  6 10  4  0  0  0  0
  7  8  4  0  0  0  0
  7 16  4  0  0  0  0
  8  9  4  0  0  0  0
  9 10  4  0  0  0  0
 10 11  1  0  0  0  0
 11 12  1  0  0  0  0
 12 13  1  0  0  0  0
 13 14  1  0  0  0  0
 13 15  1  0  0  0  0
 16 17  4  0  0  0  0
 17 18  4  0  0  0  0
M  STY  1   1 DAT
M  SAL   1  1   8
M  SDT   1 MRV_IMPLICIT_H                                        
M  SDD   1     0.0000    0.0000    DR    ALL  0       0  
M  SED   1 IMPL_H1
M  END
>  <Name_Molregno>
35617

>  <5-HT2A>
7.77

>  <5-HT2C>
7.8

$$$$
35905
  Marvin  02231216192D 0   1.00000     0.00000     0

 17 19  0  0  0  0  0  0  0  0999 V2000
   -0.0157   -1.6688    0.0000 O   0  0  0  0  0  0  0  0  0
   -0.4503   -0.9675    0.0000 C   0  0  0  0  0  0  0  0  0
   -0.0603   -0.2405    0.0000 C   0  0  0  0  0  0  0  0  0
    0.7643   -0.2148    0.0000 C   0  0  0  0  0  0  0  0  0
    1.1989   -0.9160    0.0000 C   0  0  0  0  0  0  0  0  0
    2.0235   -0.8903    0.0000 C   0  0  0  0  0  0  0  0  0
    2.4581   -1.5915    0.0000 C   0  0  0  0  0  0  0  0  0
    3.2593   -1.3949    0.0000 N   0  0  0  0  0  0  0  0  0
    3.3199   -0.5721    0.0000 C   0  0  0  0  0  0  0  0  0
    2.5561   -0.2602    0.0000 C   0  0  0  0  0  0  0  0  0
    2.3595    0.5410    0.0000 C   0  0  0  0  0  0  0  0  0
    2.9550    1.1119    0.0000 C   0  0  0  0  0  0  0  0  0
    2.7584    1.9131    0.0000 N   0  0  0  0  0  0  0  0  0
    3.8894   -1.9275    0.0000 C   0  0  0  0  0  0  0  0  0
    2.0681   -2.3185    0.0000 C   0  0  0  0  0  0  0  0  0
    1.2435   -2.3443    0.0000 C   0  0  0  0  0  0  0  0  0
    0.8089   -1.6430    0.0000 C   0  0  0  0  0  0  0  0  0
  1  2  1  0  0  0  0
  1 17  1  0  0  0  0
  2  3  1  0  0  0  0
  3  4  1  0  0  0  0
  4  5  1  0  0  0  0
  5  6  4  0  0  0  0
  5 17  4  0  0  0  0
  6  7  4  0  0  0  0
  6 10  4  0  0  0  0
  7  8  4  0  0  0  0
  7 15  4  0  0  0  0
  8  9  4  0  0  0  0
  8 14  1  0  0  0  0
  9 10  4  0  0  0  0
 10 11  1  0  0  0  0
 11 12  1  0  0  0  0
 12 13  1  0  0  0  0
 15 16  4  0  0  0  0
 16 17  4  0  0  0  0
M  END
>  <Name_Molregno>
35905

>  <5-HT1A>
5.08

>  <5-HT2A>
8.09

$$$$
36132
  Marvin  02231216192D 0   1.00000     0.00000     0

 16 18  0  0  0  0  0  0  0  0999 V2000
   -0.1044    0.0757    0.0000 O   0  0  0  0  0  0  0  0  0
   -0.5390    0.7770    0.0000 C   0  0  0  0  0  0  0  0  0
   -0.1491    1.5040    0.0000 C   0  0  0  0  0  0  0  0  0
    0.6755    1.5297    0.0000 C   0  0  0  0  0  0  0  0  0
    1.1102    0.8285    0.0000 C   0  0  0  0  0  0  0  0  0
    1.9347    0.8543    0.0000 C   0  0  0  0  0  0  0  0  0
    2.3694    0.1530    0.0000 C   0  0  0  0  0  0  0  0  0
    3.1706    0.3497    0.0000 N   0  0  0  0  0  0  0  0  0
    3.2312    1.1724    0.0000 C   0  0  0  0  0  0  0  0  0
    2.4674    1.4843    0.0000 C   0  0  0  0  0  0  0  0  0
    2.2707    2.2855    0.0000 C   0  0  0  0  0  0  0  0  0
    2.8663    2.8564    0.0000 C   0  0  0  0  0  0  0  0  0
    2.6696    3.6577    0.0000 N   0  0  0  0  0  0  0  0  0
    1.9794   -0.5740    0.0000 C   0  0  0  0  0  0  0  0  0
    1.1548   -0.5997    0.0000 C   0  0  0  0  0  0  0  0  0
    0.7202    0.1015    0.0000 C   0  0  0  0  0  0  0  0  0
  1  2  1  0  0  0  0
  1 16  1  0  0  0  0
  2  3  1  0  0  0  0
  3  4  1  0  0  0  0
  4  5  1  0  0  0  0
  5  6  4  0  0  0  0
  5 16  4  0  0  0  0
  6  7  4  0  0  0  0
  6 10  4  0  0  0  0
  7  8  4  0  0  0  0
  7 14  4  0  0  0  0
  8  9  4  0  0  0  0
  9 10  4  0  0  0  0
 10 11  1  0  0  0  0
 11 12  1  0  0  0  0
 12 13  1  0  0  0  0
 14 15  4  0  0  0  0
 15 16  4  0  0  0  0
M  STY  1   1 DAT
M  SAL   1  1   8
M  SDT   1 MRV_IMPLICIT_H                                        
M  SDD   1     0.0000    0.0000    DR    ALL  0       0  
M  SED   1 IMPL_H1
M  END
>  <Name_Molregno>
36132

>  <5-HT2A>
8.31

>  <5-HT2C>
8.2

$$$$
36730
  Marvin  02231216192D 0   1.00000     0.00000     0

 24 26  0  0  1  0  0  0  0  0999 V2000
    0.1506    0.0052    0.0000 S   0  0  0  0  0  0  0  0  0
    0.9756    0.0052    0.0000 O   0  0  0  0  0  0  0  0  0
   -0.6744    0.0052    0.0000 O   0  0  0  0  0  0  0  0  0
    0.1506   -0.8198    0.0000 N   0  0  0  0  0  0  0  0  0
    0.8180   -1.3047    0.0000 C   0  0  0  0  0  0  0  0  0
    0.5631   -2.0893    0.0000 C   0  0  0  0  0  0  0  0  0
   -0.2619   -2.0893    0.0000 C   0  0  0  0  0  0  0  0  0
   -0.5168   -1.3047    0.0000 C   0  0  0  0  0  0  0  0  0
   -1.3015   -1.0498    0.0000 C   0  0  0  0  0  0  0  0  0
   -1.9146   -1.6018    0.0000 C   0  0  0  0  0  0  0  0  0
   -2.6992   -1.3469    0.0000 N   0  0  0  0  0  0  0  0  0
   -3.3123   -1.8989    0.0000 C   0  0  0  0  0  0  0  0  0
   -4.0969   -1.6440    0.0000 C   0  0  0  0  0  0  0  0  0
   -4.2684   -0.8370    0.0000 C   0  0  0  0  0  0  0  0  0
   -3.6553   -0.2850    0.0000 C   0  0  0  0  0  0  0  0  0
   -2.8707   -0.5399    0.0000 C   0  0  0  0  0  0  0  0  0
   -5.0530   -0.5821    0.0000 C   0  0  0  0  0  0  0  0  0
    0.1506    0.8302    0.0000 C   0  0  0  0  0  0  0  0  0
   -0.5639    1.2427    0.0000 C   0  0  0  0  0  0  0  0  0
   -0.5639    2.0677    0.0000 C   0  0  0  0  0  0  0  0  0
   -1.2783    2.4802    0.0000 O   0  0  0  0  0  0  0  0  0
    0.1506    2.4802    0.0000 C   0  0  0  0  0  0  0  0  0
    0.8651    2.0677    0.0000 C   0  0  0  0  0  0  0  0  0
    0.8651    1.2427    0.0000 C   0  0  0  0  0  0  0  0  0
  1  2  2  0  0  0  0
  1  3  2  0  0  0  0
  1  4  1  0  0  0  0
  1 18  1  0  0  0  0
  4  5  1  0  0  0  0
  4  8  1  0  0  0  0
  5  6  1  0  0  0  0
  6  7  1  0  0  0  0
  7  8  1  0  0  0  0
  8  9  1  0  0  0  0
  9 10  1  0  0  0  0
 10 11  1  0  0  0  0
 11 12  1  0  0  0  0
 11 16  1  0  0  0  0
 12 13  1  0  0  0  0
 13 14  1  0  0  0  0
 14 15  1  0  0  0  0
 14 17  1  0  0  0  0
 15 16  1  0  0  0  0
 18 19  4  0  0  0  0
 18 24  4  0  0  0  0
 19 20  4  0  0  0  0
 20 21  1  0  0  0  0
 20 22  4  0  0  0  0
 22 23  4  0  0  0  0
 23 24  4  0  0  0  0
M  END
>  <Name_Molregno>
36730

>  <5-HT1A>
5

>  <5-HT2A>
5

>  <5-HT7>
8.91

>  <DOPAMINE D2>
6.5

$$$$
38445
  Marvin  02231216192D 0   1.00000     0.00000     0

 29 32  0  0  0  0  0  0  0  0999 V2000
    9.5911   -1.5592    0.0000 Cl  0  0  0  0  0  0  0  0  0
    8.8766   -1.1467    0.0000 C   0  0  0  0  0  0  0  0  0
    8.1622   -1.5592    0.0000 C   0  0  0  0  0  0  0  0  0
    7.4477   -1.1467    0.0000 C   0  0  0  0  0  0  0  0  0
    7.4477   -0.3217    0.0000 C   0  0  0  0  0  0  0  0  0
    6.6631   -0.0667    0.0000 S   0  0  0  0  0  0  0  0  0
    6.1782   -0.7342    0.0000 C   0  0  0  0  0  0  0  0  0
    5.3532   -0.7342    0.0000 S   0  0  0  0  0  0  0  0  0
    5.3532    0.0908    0.0000 O   0  0  0  0  0  0  0  0  0
    5.3532   -1.5592    0.0000 O   0  0  0  0  0  0  0  0  0
    4.5282   -0.7342    0.0000 N   0  0  0  0  0  0  0  0  0
    4.1157   -0.0197    0.0000 C   0  0  0  0  0  0  0  0  0
    3.2907   -0.0197    0.0000 C   0  0  0  0  0  0  0  0  0
    2.8782    0.6948    0.0000 C   0  0  0  0  0  0  0  0  0
    2.0532    0.6948    0.0000 N   0  0  0  0  0  0  0  0  0
    1.6407   -0.0197    0.0000 C   0  0  0  0  0  0  0  0  0
    0.8157   -0.0197    0.0000 C   0  0  0  0  0  0  0  0  0
    0.4032    0.6948    0.0000 N   0  0  0  0  0  0  0  0  0
    0.8157    1.4092    0.0000 C   0  0  0  0  0  0  0  0  0
    1.6407    1.4092    0.0000 C   0  0  0  0  0  0  0  0  0
    3.2907    1.4092    0.0000 C   0  0  0  0  0  0  0  0  0
    2.8782    2.1237    0.0000 O   0  0  0  0  0  0  0  0  0
    3.2907    2.8382    0.0000 C   0  0  0  0  0  0  0  0  0
    4.1157    1.4092    0.0000 C   0  0  0  0  0  0  0  0  0
    4.5282    0.6948    0.0000 C   0  0  0  0  0  0  0  0  0
    6.6631   -1.4016    0.0000 C   0  0  0  0  0  0  0  0  0
    6.4081   -2.1862    0.0000 C   0  0  0  0  0  0  0  0  0
    8.1622    0.0908    0.0000 C   0  0  0  0  0  0  0  0  0
    8.8766   -0.3217    0.0000 C   0  0  0  0  0  0  0  0  0
  1  2  1  0  0  0  0
  2  3  4  0  0  0  0
  2 29  4  0  0  0  0
  3  4  4  0  0  0  0
  4  5  4  0  0  0  0
  4 26  4  0  0  0  0
  5  6  4  0  0  0  0
  5 28  4  0  0  0  0
  6  7  4  0  0  0  0
  7  8  1  0  0  0  0
  7 26  4  0  0  0  0
  8  9  2  0  0  0  0
  8 10  2  0  0  0  0
  8 11  1  0  0  0  0
 11 12  1  0  0  0  0
 12 13  4  0  0  0  0
 12 25  4  0  0  0  0
 13 14  4  0  0  0  0
 14 15  1  0  0  0  0
 14 21  4  0  0  0  0
 15 16  1  0  0  0  0
 15 20  1  0  0  0  0
 16 17  1  0  0  0  0
 17 18  1  0  0  0  0
 18 19  1  0  0  0  0
 19 20  1  0  0  0  0
 21 22  1  0  0  0  0
 21 24  4  0  0  0  0
 22 23  1  0  0  0  0
 24 25  4  0  0  0  0
 26 27  1  0  0  0  0
 28 29  4  0  0  0  0
M  END
>  <Name_Molregno>
38445

>  <5-HT1A>
6.47

>  <5-HT2A>
5.76

>  <5-HT2C>
6.28

>  <5-HT6>
8.87

>  <5-HT7>
6.59

>  <DOPAMINE D1>
6.92

>  <DOPAMINE D2>
6.34

>  <DOPAMINE D3>
5.88

>  <DOPAMINE D4>
6.89

$$$$
40060
  Marvin  02231216192D 0   1.00000     0.00000     0

 23 26  0  0  0  0  0  0  0  0999 V2000
   -5.1381   -0.8657    0.0000 F   0  0  0  0  0  0  0  0  0
   -5.3930   -0.0811    0.0000 C   0  0  0  0  0  0  0  0  0
   -6.2000    0.0904    0.0000 C   0  0  0  0  0  0  0  0  0
   -6.4549    0.8751    0.0000 C   0  0  0  0  0  0  0  0  0
   -5.9029    1.4882    0.0000 C   0  0  0  0  0  0  0  0  0
   -5.0959    1.3166    0.0000 C   0  0  0  0  0  0  0  0  0
   -4.8410    0.5320    0.0000 C   0  0  0  0  0  0  0  0  0
   -4.0340    0.3605    0.0000 N   0  0  0  0  0  0  0  0  0
   -3.4820    0.9736    0.0000 C   0  0  0  0  0  0  0  0  0
   -2.6750    0.8021    0.0000 C   0  0  0  0  0  0  0  0  0
   -2.4201    0.0174    0.0000 N   0  0  0  0  0  0  0  0  0
   -2.9721   -0.5957    0.0000 C   0  0  0  0  0  0  0  0  0
   -3.7791   -0.4241    0.0000 C   0  0  0  0  0  0  0  0  0
   -1.6131   -0.1541    0.0000 C   0  0  0  0  0  0  0  0  0
   -1.3581   -0.9387    0.0000 C   0  0  0  0  0  0  0  0  0
   -0.5735   -1.1937    0.0000 C   0  0  0  0  0  0  0  0  0
    0.1409   -0.7812    0.0000 C   0  0  0  0  0  0  0  0  0
    0.8554   -1.1937    0.0000 C   0  0  0  0  0  0  0  0  0
    0.8554   -2.0187    0.0000 C   0  0  0  0  0  0  0  0  0
    0.1409   -2.4312    0.0000 N   0  0  0  0  0  0  0  0  0
   -0.5735   -2.0187    0.0000 C   0  0  0  0  0  0  0  0  0
   -1.3581   -2.2736    0.0000 N   0  0  0  0  0  0  0  0  0
   -1.8431   -1.6062    0.0000 C   0  0  0  0  0  0  0  0  0
  1  2  1  0  0  0  0
  2  3  4  0  0  0  0
  2  7  4  0  0  0  0
  3  4  4  0  0  0  0
  4  5  4  0  0  0  0
  5  6  4  0  0  0  0
  6  7  4  0  0  0  0
  7  8  1  0  0  0  0
  8  9  1  0  0  0  0
  8 13  1  0  0  0  0
  9 10  1  0  0  0  0
 10 11  1  0  0  0  0
 11 12  1  0  0  0  0
 11 14  1  0  0  0  0
 12 13  1  0  0  0  0
 14 15  1  0  0  0  0
 15 16  4  0  0  0  0
 15 23  4  0  0  0  0
 16 17  4  0  0  0  0
 16 21  4  0  0  0  0
 17 18  4  0  0  0  0
 18 19  4  0  0  0  0
 19 20  4  0  0  0  0
 20 21  4  0  0  0  0
 21 22  4  0  0  0  0
 22 23  4  0  0  0  0
M  STY  1   1 DAT
M  SAL   1  1  22
M  SDT   1 MRV_IMPLICIT_H                                        
M  SDD   1     0.0000    0.0000    DR    ALL  0       0  
M  SED   1 IMPL_H1
M  END
>  <Name_Molregno>
40060

>  <5-HT1A>
6

>  <5-HT1B>
5

>  <5-HT1D>
5

>  <5-HT1E>
5

>  <5-HT2A>
6.62

>  <5-HT2C>
5

>  <5-HT5>
5

>  <5-HT6>
5

>  <5-HT7>
6.67

$$$$
40138
  Marvin  02231216192D 0   1.00000     0.00000     0

 28 32  0  0  0  0  0  0  0  0999 V2000
    1.1413   -2.5831    0.0000 N   0  0  0  0  0  0  0  0  0
    0.6563   -1.9156    0.0000 C   0  0  0  0  0  0  0  0  0
    1.1413   -1.2482    0.0000 C   0  0  0  0  0  0  0  0  0
    1.9259   -1.5031    0.0000 C   0  0  0  0  0  0  0  0  0
    2.6403   -1.0906    0.0000 C   0  0  0  0  0  0  0  0  0
    3.3548   -1.5031    0.0000 C   0  0  0  0  0  0  0  0  0
    3.3548   -2.3281    0.0000 C   0  0  0  0  0  0  0  0  0
    2.6403   -2.7406    0.0000 N   0  0  0  0  0  0  0  0  0
    1.9259   -2.3281    0.0000 C   0  0  0  0  0  0  0  0  0
    0.8863   -0.4636    0.0000 C   0  0  0  0  0  0  0  0  0
    1.4384    0.1495    0.0000 N   0  0  0  0  0  0  0  0  0
    1.1834    0.9341    0.0000 C   0  0  0  0  0  0  0  0  0
    1.7354    1.5472    0.0000 C   0  0  0  0  0  0  0  0  0
    2.5424    1.3757    0.0000 N   0  0  0  0  0  0  0  0  0
    2.7974    0.5911    0.0000 C   0  0  0  0  0  0  0  0  0
    2.2453   -0.0220    0.0000 C   0  0  0  0  0  0  0  0  0
    3.0944    1.9888    0.0000 C   0  0  0  0  0  0  0  0  0
    2.8395    2.7734    0.0000 C   0  0  0  0  0  0  0  0  0
    3.3915    3.3865    0.0000 C   0  0  0  0  0  0  0  0  0
    4.1985    3.2150    0.0000 C   0  0  0  0  0  0  0  0  0
    4.4535    2.4304    0.0000 C   0  0  0  0  0  0  0  0  0
    3.9014    1.8173    0.0000 C   0  0  0  0  0  0  0  0  0
    4.7505    3.8281    0.0000 C   0  0  0  0  0  0  0  0  0
    4.4956    4.6127    0.0000 C   0  0  0  0  0  0  0  0  0
    5.0476    5.2258    0.0000 C   0  0  0  0  0  0  0  0  0
    5.8546    5.0543    0.0000 C   0  0  0  0  0  0  0  0  0
    6.1096    4.2697    0.0000 C   0  0  0  0  0  0  0  0  0
    5.5575    3.6566    0.0000 C   0  0  0  0  0  0  0  0  0
  1  2  4  0  0  0  0
  1  9  4  0  0  0  0
  2  3  4  0  0  0  0
  3  4  4  0  0  0  0
  3 10  1  0  0  0  0
  4  5  4  0  0  0  0
  4  9  4  0  0  0  0
  5  6  4  0  0  0  0
  6  7  4  0  0  0  0
  7  8  4  0  0  0  0
  8  9  4  0  0  0  0
 10 11  1  0  0  0  0
 11 12  1  0  0  0  0
 11 16  1  0  0  0  0
 12 13  1  0  0  0  0
 13 14  1  0  0  0  0
 14 15  1  0  0  0  0
 14 17  1  0  0  0  0
 15 16  1  0  0  0  0
 17 18  4  0  0  0  0
 17 22  4  0  0  0  0
 18 19  4  0  0  0  0
 19 20  4  0  0  0  0
 20 21  4  0  0  0  0
 20 23  1  0  0  0  0
 21 22  4  0  0  0  0
 23 24  4  0  0  0  0
 23 28  4  0  0  0  0
 24 25  4  0  0  0  0
 25 26  4  0  0  0  0
 26 27  4  0  0  0  0
 27 28  4  0  0  0  0
M  STY  1   1 DAT
M  SAL   1  1   1
M  SDT   1 MRV_IMPLICIT_H                                        
M  SDD   1     0.0000    0.0000    DR    ALL  0       0  
M  SED   1 IMPL_H1
M  END
>  <Name_Molregno>
40138

>  <5-HT1A>
5

>  <5-HT1B>
5

>  <5-HT1D>
5

>  <5-HT1E>
5

>  <5-HT2A>
5.71

>  <5-HT2C>
5

>  <5-HT5>
5

>  <5-HT6>
5

>  <5-HT7>
5

$$$$
40141
  Marvin  02231216192D 0   1.00000     0.00000     0

 25 28  0  0  0  0  0  0  0  0999 V2000
    0.8591   -2.0056    0.0000 N   0  0  0  0  0  0  0  0  0
    0.3742   -1.3381    0.0000 C   0  0  0  0  0  0  0  0  0
    0.8591   -0.6707    0.0000 C   0  0  0  0  0  0  0  0  0
    1.6437   -0.9256    0.0000 C   0  0  0  0  0  0  0  0  0
    2.3582   -0.5131    0.0000 C   0  0  0  0  0  0  0  0  0
    3.0727   -0.9256    0.0000 C   0  0  0  0  0  0  0  0  0
    3.0727   -1.7506    0.0000 C   0  0  0  0  0  0  0  0  0
    2.3582   -2.1631    0.0000 N   0  0  0  0  0  0  0  0  0
    1.6437   -1.7506    0.0000 C   0  0  0  0  0  0  0  0  0
    0.6042    0.1139    0.0000 C   0  0  0  0  0  0  0  0  0
    1.1562    0.7270    0.0000 N   0  0  0  0  0  0  0  0  0
    0.9013    1.5116    0.0000 C   0  0  0  0  0  0  0  0  0
    1.4533    2.1247    0.0000 C   0  0  0  0  0  0  0  0  0
    2.2603    1.9532    0.0000 N   0  0  0  0  0  0  0  0  0
    2.5152    1.1686    0.0000 C   0  0  0  0  0  0  0  0  0
    1.9632    0.5555    0.0000 C   0  0  0  0  0  0  0  0  0
    2.8123    2.5663    0.0000 C   0  0  0  0  0  0  0  0  0
    2.5574    3.3509    0.0000 C   0  0  0  0  0  0  0  0  0
    3.1094    3.9640    0.0000 C   0  0  0  0  0  0  0  0  0
    3.9164    3.7925    0.0000 C   0  0  0  0  0  0  0  0  0
    4.1713    3.0079    0.0000 C   0  0  0  0  0  0  0  0  0
    3.6193    2.3948    0.0000 C   0  0  0  0  0  0  0  0  0
    4.4684    4.4056    0.0000 C   0  0  0  0  0  0  0  0  0
    5.2754    4.2341    0.0000 C   0  0  0  0  0  0  0  0  0
    5.8274    4.8472    0.0000 C   0  0  0  0  0  0  0  0  0
  1  2  4  0  0  0  0
  1  9  4  0  0  0  0
  2  3  4  0  0  0  0
  3  4  4  0  0  0  0
  3 10  1  0  0  0  0
  4  5  4  0  0  0  0
  4  9  4  0  0  0  0
  5  6  4  0  0  0  0
  6  7  4  0  0  0  0
  7  8  4  0  0  0  0
  8  9  4  0  0  0  0
 10 11  1  0  0  0  0
 11 12  1  0  0  0  0
 11 16  1  0  0  0  0
 12 13  1  0  0  0  0
 13 14  1  0  0  0  0
 14 15  1  0  0  0  0
 14 17  1  0  0  0  0
 15 16  1  0  0  0  0
 17 18  4  0  0  0  0
 17 22  4  0  0  0  0
 18 19  4  0  0  0  0
 19 20  4  0  0  0  0
 20 21  4  0  0  0  0
 20 23  1  0  0  0  0
 21 22  4  0  0  0  0
 23 24  1  0  0  0  0
 24 25  1  0  0  0  0
M  STY  1   1 DAT
M  SAL   1  1   1
M  SDT   1 MRV_IMPLICIT_H                                        
M  SDD   1     0.0000    0.0000    DR    ALL  0       0  
M  SED   1 IMPL_H1
M  END
>  <Name_Molregno>
40141

>  <5-HT1A>
5

>  <5-HT1B>
5

>  <5-HT1D>
5

>  <5-HT1E>
5

>  <5-HT2A>
5

>  <5-HT2C>
5

>  <5-HT5>
5

>  <5-HT6>
5.19

>  <5-HT7>
6.15

$$$$
40142
  Marvin  02231216192D 0   1.00000     0.00000     0

 24 27  0  0  0  0  0  0  0  0999 V2000
    0.8175   -1.8909    0.0000 N   0  0  0  0  0  0  0  0  0
    0.3326   -1.2235    0.0000 C   0  0  0  0  0  0  0  0  0
    0.8175   -0.5560    0.0000 C   0  0  0  0  0  0  0  0  0
    1.6022   -0.8110    0.0000 C   0  0  0  0  0  0  0  0  0
    2.3166   -0.3985    0.0000 C   0  0  0  0  0  0  0  0  0
    3.0311   -0.8110    0.0000 C   0  0  0  0  0  0  0  0  0
    3.0311   -1.6360    0.0000 C   0  0  0  0  0  0  0  0  0
    2.3166   -2.0485    0.0000 N   0  0  0  0  0  0  0  0  0
    1.6022   -1.6360    0.0000 C   0  0  0  0  0  0  0  0  0
    0.5626    0.2286    0.0000 C   0  0  0  0  0  0  0  0  0
    1.1146    0.8417    0.0000 N   0  0  0  0  0  0  0  0  0
    0.8597    1.6263    0.0000 C   0  0  0  0  0  0  0  0  0
    1.4117    2.2394    0.0000 C   0  0  0  0  0  0  0  0  0
    2.2187    2.0679    0.0000 N   0  0  0  0  0  0  0  0  0
    2.4736    1.2832    0.0000 C   0  0  0  0  0  0  0  0  0
    1.9216    0.6701    0.0000 C   0  0  0  0  0  0  0  0  0
    2.7707    2.6810    0.0000 C   0  0  0  0  0  0  0  0  0
    2.5158    3.4656    0.0000 C   0  0  0  0  0  0  0  0  0
    3.0678    4.0787    0.0000 C   0  0  0  0  0  0  0  0  0
    3.8748    3.9071    0.0000 C   0  0  0  0  0  0  0  0  0
    4.1297    3.1225    0.0000 C   0  0  0  0  0  0  0  0  0
    3.5777    2.5094    0.0000 C   0  0  0  0  0  0  0  0  0
    4.4268    4.5202    0.0000 C   0  0  0  0  0  0  0  0  0
    4.1719    5.3049    0.0000 C   0  0  0  0  0  0  0  0  0
  1  2  4  0  0  0  0
  1  9  4  0  0  0  0
  2  3  4  0  0  0  0
  3  4  4  0  0  0  0
  3 10  1  0  0  0  0
  4  5  4  0  0  0  0
  4  9  4  0  0  0  0
  5  6  4  0  0  0  0
  6  7  4  0  0  0  0
  7  8  4  0  0  0  0
  8  9  4  0  0  0  0
 10 11  1  0  0  0  0
 11 12  1  0  0  0  0
 11 16  1  0  0  0  0
 12 13  1  0  0  0  0
 13 14  1  0  0  0  0
 14 15  1  0  0  0  0
 14 17  1  0  0  0  0
 15 16  1  0  0  0  0
 17 18  4  0  0  0  0
 17 22  4  0  0  0  0
 18 19  4  0  0  0  0
 19 20  4  0  0  0  0
 20 21  4  0  0  0  0
 20 23  1  0  0  0  0
 21 22  4  0  0  0  0
 23 24  1  0  0  0  0
M  STY  1   1 DAT
M  SAL   1  1   1
M  SDT   1 MRV_IMPLICIT_H                                        
M  SDD   1     0.0000    0.0000    DR    ALL  0       0  
M  SED   1 IMPL_H1
M  END
>  <Name_Molregno>
40142

>  <5-HT1A>
5

>  <5-HT1B>
5

>  <5-HT1D>
5

>  <5-HT1E>
5

>  <5-HT2A>
6.2

>  <5-HT2C>
5

>  <5-HT5>
5

>  <5-HT6>
5.35

>  <5-HT7>
6.39

$$$$
40143
  Marvin  02231216192D 0   1.00000     0.00000     0

 24 27  0  0  0  0  0  0  0  0999 V2000
   -4.8672   -0.8164    0.0000 O   0  0  0  0  0  0  0  0  0
   -5.4192   -1.4295    0.0000 C   0  0  0  0  0  0  0  0  0
   -5.1221   -0.0318    0.0000 C   0  0  0  0  0  0  0  0  0
   -5.9291    0.1397    0.0000 C   0  0  0  0  0  0  0  0  0
   -6.1840    0.9243    0.0000 C   0  0  0  0  0  0  0  0  0
   -5.6320    1.5374    0.0000 C   0  0  0  0  0  0  0  0  0
   -4.8250    1.3659    0.0000 C   0  0  0  0  0  0  0  0  0
   -4.5701    0.5813    0.0000 C   0  0  0  0  0  0  0  0  0
   -3.7631    0.4098    0.0000 N   0  0  0  0  0  0  0  0  0
   -3.2111    1.0229    0.0000 C   0  0  0  0  0  0  0  0  0
   -2.4041    0.8513    0.0000 C   0  0  0  0  0  0  0  0  0
   -2.1492    0.0667    0.0000 N   0  0  0  0  0  0  0  0  0
   -2.7012   -0.5464    0.0000 C   0  0  0  0  0  0  0  0  0
   -3.5082   -0.3749    0.0000 C   0  0  0  0  0  0  0  0  0
   -1.3422   -0.1048    0.0000 C   0  0  0  0  0  0  0  0  0
   -1.0873   -0.8894    0.0000 C   0  0  0  0  0  0  0  0  0
   -0.3026   -1.1444    0.0000 C   0  0  0  0  0  0  0  0  0
    0.4118   -0.7319    0.0000 C   0  0  0  0  0  0  0  0  0
    1.1263   -1.1444    0.0000 C   0  0  0  0  0  0  0  0  0
    1.1263   -1.9694    0.0000 C   0  0  0  0  0  0  0  0  0
    0.4118   -2.3819    0.0000 N   0  0  0  0  0  0  0  0  0
   -0.3026   -1.9694    0.0000 C   0  0  0  0  0  0  0  0  0
   -1.0873   -2.2243    0.0000 N   0  0  0  0  0  0  0  0  0
   -1.5722   -1.5569    0.0000 C   0  0  0  0  0  0  0  0  0
  1  2  1  0  0  0  0
  1  3  1  0  0  0  0
  3  4  4  0  0  0  0
  3  8  4  0  0  0  0
  4  5  4  0  0  0  0
  5  6  4  0  0  0  0
  6  7  4  0  0  0  0
  7  8  4  0  0  0  0
  8  9  1  0  0  0  0
  9 10  1  0  0  0  0
  9 14  1  0  0  0  0
 10 11  1  0  0  0  0
 11 12  1  0  0  0  0
 12 13  1  0  0  0  0
 12 15  1  0  0  0  0
 13 14  1  0  0  0  0
 15 16  1  0  0  0  0
 16 17  4  0  0  0  0
 16 24  4  0  0  0  0
 17 18  4  0  0  0  0
 17 22  4  0  0  0  0
 18 19  4  0  0  0  0
 19 20  4  0  0  0  0
 20 21  4  0  0  0  0
 21 22  4  0  0  0  0
 22 23  4  0  0  0  0
 23 24  4  0  0  0  0
M  STY  1   1 DAT
M  SAL   1  1  23
M  SDT   1 MRV_IMPLICIT_H                                        
M  SDD   1     0.0000    0.0000    DR    ALL  0       0  
M  SED   1 IMPL_H1
M  END
>  <Name_Molregno>
40143

>  <5-HT1A>
6.39

>  <5-HT1B>
5

>  <5-HT1D>
5

>  <5-HT1E>
5

>  <5-HT2A>
5.64

>  <5-HT2C>
5

>  <5-HT5>
5

>  <5-HT6>
5.13

>  <5-HT7>
6.99

$$$$
40144
  Marvin  02231216192D 0   1.00000     0.00000     0

 24 27  0  0  0  0  0  0  0  0999 V2000
    0.8175   -1.8909    0.0000 N   0  0  0  0  0  0  0  0  0
    0.3326   -1.2235    0.0000 C   0  0  0  0  0  0  0  0  0
    0.8175   -0.5560    0.0000 C   0  0  0  0  0  0  0  0  0
    1.6022   -0.8110    0.0000 C   0  0  0  0  0  0  0  0  0
    2.3166   -0.3985    0.0000 C   0  0  0  0  0  0  0  0  0
    3.0311   -0.8110    0.0000 C   0  0  0  0  0  0  0  0  0
    3.0311   -1.6360    0.0000 C   0  0  0  0  0  0  0  0  0
    2.3166   -2.0485    0.0000 N   0  0  0  0  0  0  0  0  0
    1.6022   -1.6360    0.0000 C   0  0  0  0  0  0  0  0  0
    0.5626    0.2286    0.0000 C   0  0  0  0  0  0  0  0  0
    1.1146    0.8417    0.0000 N   0  0  0  0  0  0  0  0  0
    0.8597    1.6263    0.0000 C   0  0  0  0  0  0  0  0  0
    1.4117    2.2394    0.0000 C   0  0  0  0  0  0  0  0  0
    2.2187    2.0679    0.0000 N   0  0  0  0  0  0  0  0  0
    2.4736    1.2832    0.0000 C   0  0  0  0  0  0  0  0  0
    1.9216    0.6701    0.0000 C   0  0  0  0  0  0  0  0  0
    2.7707    2.6810    0.0000 C   0  0  0  0  0  0  0  0  0
    2.5158    3.4656    0.0000 C   0  0  0  0  0  0  0  0  0
    3.0678    4.0787    0.0000 C   0  0  0  0  0  0  0  0  0
    3.8748    3.9071    0.0000 C   0  0  0  0  0  0  0  0  0
    4.1297    3.1225    0.0000 C   0  0  0  0  0  0  0  0  0
    3.5777    2.5094    0.0000 C   0  0  0  0  0  0  0  0  0
    4.4268    4.5202    0.0000 C   0  0  0  0  0  0  0  0  0
    4.1719    5.3049    0.0000 C   0  0  0  0  0  0  0  0  0
  1  2  4  0  0  0  0
  1  9  4  0  0  0  0
  2  3  4  0  0  0  0
  3  4  4  0  0  0  0
  3 10  1  0  0  0  0
  4  5  4  0  0  0  0
  4  9  4  0  0  0  0
  5  6  4  0  0  0  0
  6  7  4  0  0  0  0
  7  8  4  0  0  0  0
  8  9  4  0  0  0  0
 10 11  1  0  0  0  0
 11 12  1  0  0  0  0
 11 16  1  0  0  0  0
 12 13  1  0  0  0  0
 13 14  1  0  0  0  0
 14 15  1  0  0  0  0
 14 17  1  0  0  0  0
 15 16  1  0  0  0  0
 17 18  4  0  0  0  0
 17 22  4  0  0  0  0
 18 19  4  0  0  0  0
 19 20  4  0  0  0  0
 20 21  4  0  0  0  0
 20 23  1  0  0  0  0
 21 22  4  0  0  0  0
 23 24  2  0  0  0  0
M  STY  1   1 DAT
M  SAL   1  1   1
M  SDT   1 MRV_IMPLICIT_H                                        
M  SDD   1     0.0000    0.0000    DR    ALL  0       0  
M  SED   1 IMPL_H1
M  END
>  <Name_Molregno>
40144

>  <5-HT1A>
5.4

>  <5-HT1B>
5

>  <5-HT1D>
5

>  <5-HT1E>
5

>  <5-HT2A>
6.29

>  <5-HT2C>
5

>  <5-HT5>
5

>  <5-HT6>
5

>  <5-HT7>
5

$$$$
40145
  Marvin  02231216192D 0   1.00000     0.00000     0

 26 29  0  0  0  0  0  0  0  0999 V2000
    0.0657    1.7835    0.0000 F   0  0  0  0  0  0  0  0  0
    0.8727    1.6120    0.0000 C   0  0  0  0  0  0  0  0  0
    0.7011    0.8050    0.0000 F   0  0  0  0  0  0  0  0  0
    1.0442    2.4190    0.0000 F   0  0  0  0  0  0  0  0  0
    1.6796    1.4405    0.0000 C   0  0  0  0  0  0  0  0  0
    2.2317    2.0536    0.0000 C   0  0  0  0  0  0  0  0  0
    3.0386    1.8820    0.0000 C   0  0  0  0  0  0  0  0  0
    3.2936    1.0974    0.0000 C   0  0  0  0  0  0  0  0  0
    4.1005    0.9259    0.0000 N   0  0  0  0  0  0  0  0  0
    4.6526    1.5390    0.0000 C   0  0  0  0  0  0  0  0  0
    5.4595    1.3675    0.0000 C   0  0  0  0  0  0  0  0  0
    5.7145    0.5828    0.0000 N   0  0  0  0  0  0  0  0  0
    5.1625   -0.0303    0.0000 C   0  0  0  0  0  0  0  0  0
    4.3555    0.1413    0.0000 C   0  0  0  0  0  0  0  0  0
    6.5215    0.4113    0.0000 C   0  0  0  0  0  0  0  0  0
    6.7764   -0.3733    0.0000 C   0  0  0  0  0  0  0  0  0
    7.5610   -0.6282    0.0000 C   0  0  0  0  0  0  0  0  0
    8.2755   -0.2157    0.0000 C   0  0  0  0  0  0  0  0  0
    8.9900   -0.6282    0.0000 C   0  0  0  0  0  0  0  0  0
    8.9900   -1.4532    0.0000 C   0  0  0  0  0  0  0  0  0
    8.2755   -1.8657    0.0000 N   0  0  0  0  0  0  0  0  0
    7.5610   -1.4532    0.0000 C   0  0  0  0  0  0  0  0  0
    6.7764   -1.7082    0.0000 N   0  0  0  0  0  0  0  0  0
    6.2915   -1.0407    0.0000 C   0  0  0  0  0  0  0  0  0
    2.7415    0.4843    0.0000 C   0  0  0  0  0  0  0  0  0
    1.9346    0.6559    0.0000 C   0  0  0  0  0  0  0  0  0
  1  2  1  0  0  0  0
  2  3  1  0  0  0  0
  2  4  1  0  0  0  0
  2  5  1  0  0  0  0
  5  6  4  0  0  0  0
  5 26  4  0  0  0  0
  6  7  4  0  0  0  0
  7  8  4  0  0  0  0
  8  9  1  0  0  0  0
  8 25  4  0  0  0  0
  9 10  1  0  0  0  0
  9 14  1  0  0  0  0
 10 11  1  0  0  0  0
 11 12  1  0  0  0  0
 12 13  1  0  0  0  0
 12 15  1  0  0  0  0
 13 14  1  0  0  0  0
 15 16  1  0  0  0  0
 16 17  4  0  0  0  0
 16 24  4  0  0  0  0
 17 18  4  0  0  0  0
 17 22  4  0  0  0  0
 18 19  4  0  0  0  0
 19 20  4  0  0  0  0
 20 21  4  0  0  0  0
 21 22  4  0  0  0  0
 22 23  4  0  0  0  0
 23 24  4  0  0  0  0
 25 26  4  0  0  0  0
M  STY  1   1 DAT
M  SAL   1  1  23
M  SDT   1 MRV_IMPLICIT_H                                        
M  SDD   1     0.0000    0.0000    DR    ALL  0       0  
M  SED   1 IMPL_H1
M  END
>  <Name_Molregno>
40145

>  <5-HT1A>
5

>  <5-HT1B>
5

>  <5-HT1D>
5

>  <5-HT1E>
5

>  <5-HT2A>
5.55

>  <5-HT2C>
5

>  <5-HT5>
5

>  <5-HT6>
5.15

>  <5-HT7>
6.5

$$$$
40178
  Marvin  02231216192D 0   1.00000     0.00000     0

 24 27  0  0  0  0  0  0  0  0999 V2000
   -8.4666    1.7569    0.0000 S   0  0  0  0  0  0  0  0  0
   -9.0187    1.1438    0.0000 C   0  0  0  0  0  0  0  0  0
   -7.6597    1.5853    0.0000 C   0  0  0  0  0  0  0  0  0
   -7.1076    2.1984    0.0000 C   0  0  0  0  0  0  0  0  0
   -6.3007    2.0269    0.0000 C   0  0  0  0  0  0  0  0  0
   -6.0457    1.2423    0.0000 C   0  0  0  0  0  0  0  0  0
   -5.2387    1.0708    0.0000 N   0  0  0  0  0  0  0  0  0
   -4.6867    1.6839    0.0000 C   0  0  0  0  0  0  0  0  0
   -3.8797    1.5123    0.0000 C   0  0  0  0  0  0  0  0  0
   -3.6248    0.7277    0.0000 N   0  0  0  0  0  0  0  0  0
   -4.1768    0.1146    0.0000 C   0  0  0  0  0  0  0  0  0
   -4.9838    0.2861    0.0000 C   0  0  0  0  0  0  0  0  0
   -2.8178    0.5562    0.0000 C   0  0  0  0  0  0  0  0  0
   -2.5629   -0.2284    0.0000 C   0  0  0  0  0  0  0  0  0
   -1.7783   -0.4834    0.0000 C   0  0  0  0  0  0  0  0  0
   -1.0638   -0.0709    0.0000 C   0  0  0  0  0  0  0  0  0
   -0.3493   -0.4834    0.0000 C   0  0  0  0  0  0  0  0  0
   -0.3493   -1.3084    0.0000 C   0  0  0  0  0  0  0  0  0
   -1.0638   -1.7209    0.0000 N   0  0  0  0  0  0  0  0  0
   -1.7783   -1.3084    0.0000 C   0  0  0  0  0  0  0  0  0
   -2.5629   -1.5633    0.0000 N   0  0  0  0  0  0  0  0  0
   -3.0478   -0.8959    0.0000 C   0  0  0  0  0  0  0  0  0
   -6.5977    0.6292    0.0000 C   0  0  0  0  0  0  0  0  0
   -7.4047    0.8007    0.0000 C   0  0  0  0  0  0  0  0  0
  1  2  1  0  0  0  0
  1  3  1  0  0  0  0
  3  4  4  0  0  0  0
  3 24  4  0  0  0  0
  4  5  4  0  0  0  0
  5  6  4  0  0  0  0
  6  7  1  0  0  0  0
  6 23  4  0  0  0  0
  7  8  1  0  0  0  0
  7 12  1  0  0  0  0
  8  9  1  0  0  0  0
  9 10  1  0  0  0  0
 10 11  1  0  0  0  0
 10 13  1  0  0  0  0
 11 12  1  0  0  0  0
 13 14  1  0  0  0  0
 14 15  4  0  0  0  0
 14 22  4  0  0  0  0
 15 16  4  0  0  0  0
 15 20  4  0  0  0  0
 16 17  4  0  0  0  0
 17 18  4  0  0  0  0
 18 19  4  0  0  0  0
 19 20  4  0  0  0  0
 20 21  4  0  0  0  0
 21 22  4  0  0  0  0
 23 24  4  0  0  0  0
M  STY  1   1 DAT
M  SAL   1  1  21
M  SDT   1 MRV_IMPLICIT_H                                        
M  SDD   1     0.0000    0.0000    DR    ALL  0       0  
M  SED   1 IMPL_H1
M  END
>  <Name_Molregno>
40178

>  <5-HT1A>
5

>  <5-HT1B>
5

>  <5-HT1D>
5

>  <5-HT1E>
5

>  <5-HT2A>
5

>  <5-HT2C>
5

>  <5-HT5>
5

>  <5-HT6>
5

>  <5-HT7>
6.47

$$$$
40961
  Marvin  02231216192D 0   1.00000     0.00000     0

 24 27  0  0  0  0  0  0  0  0999 V2000
   -8.4666    1.7569    0.0000 O   0  0  0  0  0  0  0  0  0
   -9.0187    1.1438    0.0000 C   0  0  0  0  0  0  0  0  0
   -7.6597    1.5853    0.0000 C   0  0  0  0  0  0  0  0  0
   -7.1076    2.1984    0.0000 C   0  0  0  0  0  0  0  0  0
   -6.3007    2.0269    0.0000 C   0  0  0  0  0  0  0  0  0
   -6.0457    1.2423    0.0000 C   0  0  0  0  0  0  0  0  0
   -5.2387    1.0708    0.0000 N   0  0  0  0  0  0  0  0  0
   -4.6867    1.6839    0.0000 C   0  0  0  0  0  0  0  0  0
   -3.8797    1.5123    0.0000 C   0  0  0  0  0  0  0  0  0
   -3.6248    0.7277    0.0000 N   0  0  0  0  0  0  0  0  0
   -4.1768    0.1146    0.0000 C   0  0  0  0  0  0  0  0  0
   -4.9838    0.2861    0.0000 C   0  0  0  0  0  0  0  0  0
   -2.8178    0.5562    0.0000 C   0  0  0  0  0  0  0  0  0
   -2.5629   -0.2284    0.0000 C   0  0  0  0  0  0  0  0  0
   -1.7783   -0.4834    0.0000 C   0  0  0  0  0  0  0  0  0
   -1.0638   -0.0709    0.0000 C   0  0  0  0  0  0  0  0  0
   -0.3493   -0.4834    0.0000 C   0  0  0  0  0  0  0  0  0
   -0.3493   -1.3084    0.0000 C   0  0  0  0  0  0  0  0  0
   -1.0638   -1.7209    0.0000 N   0  0  0  0  0  0  0  0  0
   -1.7783   -1.3084    0.0000 C   0  0  0  0  0  0  0  0  0
   -2.5629   -1.5633    0.0000 N   0  0  0  0  0  0  0  0  0
   -3.0478   -0.8959    0.0000 C   0  0  0  0  0  0  0  0  0
   -6.5977    0.6292    0.0000 C   0  0  0  0  0  0  0  0  0
   -7.4047    0.8007    0.0000 C   0  0  0  0  0  0  0  0  0
  1  2  1  0  0  0  0
  1  3  1  0  0  0  0
  3  4  4  0  0  0  0
  3 24  4  0  0  0  0
  4  5  4  0  0  0  0
  5  6  4  0  0  0  0
  6  7  1  0  0  0  0
  6 23  4  0  0  0  0
  7  8  1  0  0  0  0
  7 12  1  0  0  0  0
  8  9  1  0  0  0  0
  9 10  1  0  0  0  0
 10 11  1  0  0  0  0
 10 13  1  0  0  0  0
 11 12  1  0  0  0  0
 13 14  1  0  0  0  0
 14 15  4  0  0  0  0
 14 22  4  0  0  0  0
 15 16  4  0  0  0  0
 15 20  4  0  0  0  0
 16 17  4  0  0  0  0
 17 18  4  0  0  0  0
 18 19  4  0  0  0  0
 19 20  4  0  0  0  0
 20 21  4  0  0  0  0
 21 22  4  0  0  0  0
 23 24  4  0  0  0  0
M  STY  1   1 DAT
M  SAL   1  1  21
M  SDT   1 MRV_IMPLICIT_H                                        
M  SDD   1     0.0000    0.0000    DR    ALL  0       0  
M  SED   1 IMPL_H1
M  END
>  <Name_Molregno>
40961

>  <5-HT1A>
5

>  <5-HT1B>
5

>  <5-HT1D>
5

>  <5-HT1E>
5

>  <5-HT2A>
5

>  <5-HT2C>
5

>  <5-HT5>
5

>  <5-HT6>
5

>  <5-HT7>
5

>  <DOPAMINE D2>
5.82

>  <DOPAMINE D3>
5.41

>  <DOPAMINE D4>
8.89

$$$$
40962
  Marvin  02231216192D 0   1.00000     0.00000     0

 23 26  0  0  0  0  0  0  0  0999 V2000
    0.0748    1.8640    0.0000 F   0  0  0  0  0  0  0  0  0
    0.8818    1.6925    0.0000 C   0  0  0  0  0  0  0  0  0
    1.4339    2.3056    0.0000 C   0  0  0  0  0  0  0  0  0
    2.2408    2.1340    0.0000 C   0  0  0  0  0  0  0  0  0
    2.4958    1.3494    0.0000 C   0  0  0  0  0  0  0  0  0
    3.3027    1.1779    0.0000 N   0  0  0  0  0  0  0  0  0
    3.8548    1.7910    0.0000 C   0  0  0  0  0  0  0  0  0
    4.6617    1.6194    0.0000 C   0  0  0  0  0  0  0  0  0
    4.9167    0.8348    0.0000 N   0  0  0  0  0  0  0  0  0
    4.3646    0.2217    0.0000 C   0  0  0  0  0  0  0  0  0
    3.5577    0.3933    0.0000 C   0  0  0  0  0  0  0  0  0
    5.7237    0.6633    0.0000 C   0  0  0  0  0  0  0  0  0
    5.9786   -0.1213    0.0000 C   0  0  0  0  0  0  0  0  0
    6.7632   -0.3763    0.0000 C   0  0  0  0  0  0  0  0  0
    7.4777    0.0362    0.0000 C   0  0  0  0  0  0  0  0  0
    8.1922   -0.3763    0.0000 C   0  0  0  0  0  0  0  0  0
    8.1922   -1.2013    0.0000 C   0  0  0  0  0  0  0  0  0
    7.4777   -1.6138    0.0000 N   0  0  0  0  0  0  0  0  0
    6.7632   -1.2013    0.0000 C   0  0  0  0  0  0  0  0  0
    5.9786   -1.4562    0.0000 N   0  0  0  0  0  0  0  0  0
    5.4937   -0.7888    0.0000 C   0  0  0  0  0  0  0  0  0
    1.9437    0.7363    0.0000 C   0  0  0  0  0  0  0  0  0
    1.1368    0.9078    0.0000 C   0  0  0  0  0  0  0  0  0
  1  2  1  0  0  0  0
  2  3  4  0  0  0  0
  2 23  4  0  0  0  0
  3  4  4  0  0  0  0
  4  5  4  0  0  0  0
  5  6  1  0  0  0  0
  5 22  4  0  0  0  0
  6  7  1  0  0  0  0
  6 11  1  0  0  0  0
  7  8  1  0  0  0  0
  8  9  1  0  0  0  0
  9 10  1  0  0  0  0
  9 12  1  0  0  0  0
 10 11  1  0  0  0  0
 12 13  1  0  0  0  0
 13 14  4  0  0  0  0
 13 21  4  0  0  0  0
 14 15  4  0  0  0  0
 14 19  4  0  0  0  0
 15 16  4  0  0  0  0
 16 17  4  0  0  0  0
 17 18  4  0  0  0  0
 18 19  4  0  0  0  0
 19 20  4  0  0  0  0
 20 21  4  0  0  0  0
 22 23  4  0  0  0  0
M  STY  1   1 DAT
M  SAL   1  1  20
M  SDT   1 MRV_IMPLICIT_H                                        
M  SDD   1     0.0000    0.0000    DR    ALL  0       0  
M  SED   1 IMPL_H1
M  END
>  <Name_Molregno>
40962

>  <5-HT1A>
5.56

>  <5-HT1B>
5

>  <5-HT1D>
5

>  <5-HT1E>
5

>  <5-HT2A>
6.63

>  <5-HT2C>
5

>  <5-HT5>
5

>  <5-HT6>
5

>  <5-HT7>
6.38

$$$$
41198
  Marvin  02231216192D 0   1.00000     0.00000     0

 21 24  0  0  1  0  0  0  0  0999 V2000
   -0.6586   -2.1588    0.0000 O   0  0  0  0  0  0  0  0  0
   -0.6586   -1.3338    0.0000 C   0  0  0  0  0  0  0  0  0
   -1.3731   -0.9213    0.0000 C   0  0  0  0  0  0  0  0  0
   -1.3731   -0.0963    0.0000 C   0  0  0  0  0  0  0  0  0
   -2.0876    0.3162    0.0000 C   0  0  0  0  0  0  0  0  0
   -2.8020   -0.0963    0.0000 C   0  0  0  0  0  0  0  0  0
   -3.5165    0.3162    0.0000 N   0  0  0  0  0  0  0  0  0
   -4.2310   -0.0963    0.0000 C   0  0  0  0  0  0  0  0  0
   -4.2310   -0.9213    0.0000 C   0  0  0  0  0  0  0  0  0
   -3.5165   -1.3338    0.0000 C   0  0  0  0  0  0  0  0  0
   -2.8020   -0.9213    0.0000 C   0  0  0  0  0  0  0  0  0
   -2.0876   -1.3338    0.0000 C   0  0  0  0  0  0  0  0  0
   -2.0876   -2.1588    0.0000 C   0  0  0  0  0  0  0  0  0
   -2.8020   -2.5713    0.0000 C   0  0  0  0  0  0  0  0  0
   -3.5165   -2.1588    0.0000 C   0  0  0  0  0  0  0  0  0
   -3.5165    1.1412    0.0000 C   0  0  0  0  0  0  0  0  0
   -2.8020    1.5537    0.0000 C   0  0  0  0  0  0  0  0  0
   -2.8020    2.3787    0.0000 C   0  0  0  0  0  0  0  0  0
   -0.6586    0.3162    0.0000 C   0  0  0  0  0  0  0  0  0
    0.0558   -0.0963    0.0000 C   0  0  0  0  0  0  0  0  0
    0.0558   -0.9213    0.0000 C   0  0  0  0  0  0  0  0  0
  1  2  1  0  0  0  0
  2  3  4  0  0  0  0
  2 21  4  0  0  0  0
  3  4  4  0  0  0  0
  3 12  1  0  0  0  0
  4  5  1  0  0  0  0
  4 19  4  0  0  0  0
  5  6  1  0  0  0  0
  6  7  1  0  0  0  0
  6 11  1  0  0  0  0
  7  8  1  0  0  0  0
  7 16  1  0  0  0  0
  8  9  1  0  0  0  0
  9 10  1  0  0  0  0
 10 11  4  0  0  0  0
 10 15  4  0  0  0  0
 11 12  4  0  0  0  0
 12 13  4  0  0  0  0
 13 14  4  0  0  0  0
 14 15  4  0  0  0  0
 16 17  1  0  0  0  0
 17 18  1  0  0  0  0
 19 20  4  0  0  0  0
 20 21  4  0  0  0  0
M  END
>  <Name_Molregno>
41198

>  <5-HT2A>
6.94

>  <DOPAMINE D1>
7.35

>  <DOPAMINE D2>
6.45

$$$$
42179
  Marvin  02231216192D 0   1.00000     0.00000     0

 31 34  0  0  0  0  0  0  0  0999 V2000
    0.8929    1.6421    0.0000 O   0  0  0  0  0  0  0  0  0
    1.6074    2.0546    0.0000 C   0  0  0  0  0  0  0  0  0
    0.8929    0.8171    0.0000 C   0  0  0  0  0  0  0  0  0
    1.6074    0.4046    0.0000 C   0  0  0  0  0  0  0  0  0
    1.6074   -0.4204    0.0000 C   0  0  0  0  0  0  0  0  0
    0.8929   -0.8329    0.0000 C   0  0  0  0  0  0  0  0  0
    0.1785   -0.4204    0.0000 C   0  0  0  0  0  0  0  0  0
    0.1785    0.4046    0.0000 C   0  0  0  0  0  0  0  0  0
   -0.5360    0.8171    0.0000 N   0  0  0  0  0  0  0  0  0
   -1.2505    0.4046    0.0000 C   0  0  0  0  0  0  0  0  0
   -1.9649    0.8171    0.0000 C   0  0  0  0  0  0  0  0  0
   -1.9649    1.6421    0.0000 N   0  0  0  0  0  0  0  0  0
   -1.2505    2.0546    0.0000 C   0  0  0  0  0  0  0  0  0
   -0.5360    1.6421    0.0000 C   0  0  0  0  0  0  0  0  0
   -2.6794    2.0546    0.0000 C   0  0  0  0  0  0  0  0  0
   -3.3939    1.6421    0.0000 C   0  0  0  0  0  0  0  0  0
   -4.1083    2.0546    0.0000 N   0  0  0  0  0  0  0  0  0
   -4.8228    1.6421    0.0000 C   0  0  0  0  0  0  0  0  0
   -4.8228    0.8171    0.0000 O   0  0  0  0  0  0  0  0  0
   -5.5373    2.0546    0.0000 C   0  0  0  0  0  0  0  0  0
   -6.2518    1.6421    0.0000 C   0  0  0  0  0  0  0  0  0
   -6.9662    2.0546    0.0000 C   0  0  0  0  0  0  0  0  0
   -6.9662    2.8796    0.0000 C   0  0  0  0  0  0  0  0  0
   -6.2518    3.2921    0.0000 C   0  0  0  0  0  0  0  0  0
   -5.5373    2.8796    0.0000 C   0  0  0  0  0  0  0  0  0
   -4.1083    2.8796    0.0000 C   0  0  0  0  0  0  0  0  0
   -4.8228    3.2921    0.0000 N   0  0  0  0  0  0  0  0  0
   -4.8228    4.1171    0.0000 C   0  0  0  0  0  0  0  0  0
   -4.1083    4.5296    0.0000 C   0  0  0  0  0  0  0  0  0
   -3.3939    4.1171    0.0000 C   0  0  0  0  0  0  0  0  0
   -3.3939    3.2921    0.0000 C   0  0  0  0  0  0  0  0  0
  1  2  1  0  0  0  0
  1  3  1  0  0  0  0
  3  4  4  0  0  0  0
  3  8  4  0  0  0  0
  4  5  4  0  0  0  0
  5  6  4  0  0  0  0
  6  7  4  0  0  0  0
  7  8  4  0  0  0  0
  8  9  1  0  0  0  0
  9 10  1  0  0  0  0
  9 14  1  0  0  0  0
 10 11  1  0  0  0  0
 11 12  1  0  0  0  0
 12 13  1  0  0  0  0
 12 15  1  0  0  0  0
 13 14  1  0  0  0  0
 15 16  1  0  0  0  0
 16 17  1  0  0  0  0
 17 18  1  0  0  0  0
 17 26  1  0  0  0  0
 18 19  2  0  0  0  0
 18 20  1  0  0  0  0
 20 21  1  0  0  0  0
 20 25  1  0  0  0  0
 21 22  1  0  0  0  0
 22 23  1  0  0  0  0
 23 24  1  0  0  0  0
 24 25  1  0  0  0  0
 26 27  4  0  0  0  0
 26 31  4  0  0  0  0
 27 28  4  0  0  0  0
 28 29  4  0  0  0  0
 29 30  4  0  0  0  0
 30 31  4  0  0  0  0
M  END
>  <Name_Molregno>
42179

>  <5-HT1A>
9.12

>  <5-HT1B>
5

>  <5-HT1D>
5

>  <5-HT1E>
5

>  <5-HT2A>
5.2

>  <5-HT5>
5

>  <5-HT6>
5

>  <5-HT7>
5

>  <Alpha-1A>
7.71

>  <Alpha-1B>
6.33

>  <Alpha-2A>
5

>  <Alpha-2B>
5

>  <Alpha-2C>
5.59

>  <DOPAMINE D1>
5

>  <DOPAMINE D2>
6.57

>  <DOPAMINE D3>
7.17

>  <DOPAMINE D4>
7.79

>  <DOPAMINE D5>
5

>  <HISTAMINE H1>
5

>  <HISTAMINE H2>
5

>  <HISTAMINE H4>
5

>  <Muscarinic acetylcholine receptor M2>
5

>  <Muscarinic acetylcholine receptor M5>
5

$$$$
43567
  Marvin  02231216192D 0   1.00000     0.00000     0

 15 16  0  0  1  0  0  0  0  0999 V2000
    0.4908   -1.6385    0.0000 O   0  0  0  0  0  0  0  0  0
    1.2053   -1.2260    0.0000 C   0  0  0  0  0  0  0  0  0
   -0.2236   -1.2260    0.0000 C   0  0  0  0  0  0  0  0  0
   -0.9381   -1.6385    0.0000 C   0  0  0  0  0  0  0  0  0
   -1.6526   -1.2260    0.0000 C   0  0  0  0  0  0  0  0  0
   -1.6526   -0.4010    0.0000 C   0  0  0  0  0  0  0  0  0
   -2.4372   -0.1460    0.0000 N   0  0  0  0  0  0  0  0  0
   -2.9221   -0.8135    0.0000 C   0  0  0  0  0  0  0  0  0
   -2.4372   -1.4809    0.0000 C   0  0  0  0  0  0  0  0  0
   -2.6921   -2.2655    0.0000 C   0  0  0  0  0  0  0  0  0
   -3.4991   -2.4371    0.0000 C   0  0  0  0  0  0  0  0  0
   -3.7541   -3.2217    0.0000 N   0  0  0  0  0  0  0  0  0
   -4.0511   -1.8240    0.0000 C   0  0  0  0  0  0  0  0  0
   -0.9381    0.0115    0.0000 C   0  0  0  0  0  0  0  0  0
   -0.2236   -0.4010    0.0000 C   0  0  0  0  0  0  0  0  0
  1  2  1  0  0  0  0
  1  3  1  0  0  0  0
  3  4  4  0  0  0  0
  3 15  4  0  0  0  0
  4  5  4  0  0  0  0
  5  6  4  0  0  0  0
  5  9  4  0  0  0  0
  6  7  4  0  0  0  0
  6 14  4  0  0  0  0
  7  8  4  0  0  0  0
  8  9  4  0  0  0  0
  9 10  1  0  0  0  0
 10 11  1  0  0  0  0
 11 12  1  0  0  0  0
 11 13  1  0  0  0  0
 14 15  4  0  0  0  0
M  STY  1   1 DAT
M  SAL   1  1   7
M  SDT   1 MRV_IMPLICIT_H                                        
M  SDD   1     0.0000    0.0000    DR    ALL  0       0  
M  SED   1 IMPL_H1
M  END
>  <Name_Molregno>
43567

>  <5-HT2A>
8.34

>  <5-HT2C>
8.08

$$$$
59478
  Marvin  02231216192D 0   1.00000     0.00000     0

 16 17  0  0  0  0  0  0  0  0999 V2000
   -0.3374   -1.5004    0.0000 O   0  0  0  0  0  0  0  0  0
    0.3771   -1.0879    0.0000 C   0  0  0  0  0  0  0  0  0
   -1.0518   -1.0879    0.0000 C   0  0  0  0  0  0  0  0  0
   -1.7663   -1.5004    0.0000 C   0  0  0  0  0  0  0  0  0
   -2.4808   -1.0879    0.0000 C   0  0  0  0  0  0  0  0  0
   -2.4808   -0.2629    0.0000 C   0  0  0  0  0  0  0  0  0
   -3.2654   -0.0080    0.0000 N   0  0  0  0  0  0  0  0  0
   -3.7503   -0.6754    0.0000 C   0  0  0  0  0  0  0  0  0
   -3.2654   -1.3429    0.0000 C   0  0  0  0  0  0  0  0  0
   -3.5203    0.7766    0.0000 C   0  0  0  0  0  0  0  0  0
   -4.3273    0.9482    0.0000 C   0  0  0  0  0  0  0  0  0
   -4.5822    1.7328    0.0000 N   0  0  0  0  0  0  0  0  0
   -5.3892    1.9043    0.0000 C   0  0  0  0  0  0  0  0  0
   -4.0302    2.3459    0.0000 C   0  0  0  0  0  0  0  0  0
   -1.7663    0.1496    0.0000 C   0  0  0  0  0  0  0  0  0
   -1.0518   -0.2629    0.0000 C   0  0  0  0  0  0  0  0  0
  1  2  1  0  0  0  0
  1  3  1  0  0  0  0
  3  4  4  0  0  0  0
  3 16  4  0  0  0  0
  4  5  4  0  0  0  0
  5  6  4  0  0  0  0
  5  9  4  0  0  0  0
  6  7  4  0  0  0  0
  6 15  4  0  0  0  0
  7  8  4  0  0  0  0
  7 10  1  0  0  0  0
  8  9  4  0  0  0  0
 10 11  1  0  0  0  0
 11 12  1  0  0  0  0
 12 13  1  0  0  0  0
 12 14  1  0  0  0  0
 15 16  4  0  0  0  0
M  END
>  <Name_Molregno>
59478

>  <5-HT2A>
5

$$$$
59539
  Marvin  02231216192D 0   1.00000     0.00000     0

 16 18  0  0  0  0  0  0  0  0999 V2000
    5.3241    0.2145    0.0000 Cl  0  0  0  0  0  0  0  0  0
    4.5171    0.3860    0.0000 C   0  0  0  0  0  0  0  0  0
    3.9651   -0.2271    0.0000 C   0  0  0  0  0  0  0  0  0
    3.1581   -0.0556    0.0000 C   0  0  0  0  0  0  0  0  0
    2.9032    0.7290    0.0000 C   0  0  0  0  0  0  0  0  0
    2.0782    0.7290    0.0000 N   0  0  0  0  0  0  0  0  0
    1.8233   -0.0556    0.0000 C   0  0  0  0  0  0  0  0  0
    1.0163   -0.2271    0.0000 C   0  0  0  0  0  0  0  0  0
    0.4642    0.3860    0.0000 N   0  0  0  0  0  0  0  0  0
    0.7192    1.1706    0.0000 C   0  0  0  0  0  0  0  0  0
    1.5262    1.3421    0.0000 C   0  0  0  0  0  0  0  0  0
    2.4907   -0.5405    0.0000 C   0  0  0  0  0  0  0  0  0
    2.4907   -1.3655    0.0000 O   0  0  0  0  0  0  0  0  0
    1.7762   -1.7780    0.0000 C   0  0  0  0  0  0  0  0  0
    3.4552    1.3421    0.0000 C   0  0  0  0  0  0  0  0  0
    4.2622    1.1706    0.0000 C   0  0  0  0  0  0  0  0  0
  1  2  1  0  0  0  0
  2  3  4  0  0  0  0
  2 16  4  0  0  0  0
  3  4  4  0  0  0  0
  4  5  4  0  0  0  0
  4 12  4  0  0  0  0
  5  6  4  0  0  0  0
  5 15  4  0  0  0  0
  6  7  4  0  0  0  0
  6 11  1  0  0  0  0
  7  8  1  0  0  0  0
  7 12  4  0  0  0  0
  8  9  1  0  0  0  0
  9 10  1  0  0  0  0
 10 11  1  0  0  0  0
 12 13  1  0  0  0  0
 13 14  1  0  0  0  0
 15 16  4  0  0  0  0
M  END
>  <Name_Molregno>
59539

>  <5-HT2A>
7.05

$$$$
59545
  Marvin  02231216192D 0   1.00000     0.00000     0

 16 17  0  0  0  0  0  0  0  0999 V2000
    5.1172   -1.6618    0.0000 F   0  0  0  0  0  0  0  0  0
    4.4028   -1.2493    0.0000 C   0  0  0  0  0  0  0  0  0
    3.6883   -1.6618    0.0000 C   0  0  0  0  0  0  0  0  0
    2.9738   -1.2493    0.0000 C   0  0  0  0  0  0  0  0  0
    2.9738   -0.4243    0.0000 C   0  0  0  0  0  0  0  0  0
    2.1892   -0.1694    0.0000 N   0  0  0  0  0  0  0  0  0
    1.7043   -0.8368    0.0000 C   0  0  0  0  0  0  0  0  0
    2.1892   -1.5043    0.0000 C   0  0  0  0  0  0  0  0  0
    1.9343    0.6152    0.0000 C   0  0  0  0  0  0  0  0  0
    1.1273    0.7867    0.0000 C   0  0  0  0  0  0  0  0  0
    0.8724    1.5714    0.0000 N   0  0  0  0  0  0  0  0  0
    0.0654    1.7429    0.0000 C   0  0  0  0  0  0  0  0  0
    1.4244    2.1845    0.0000 C   0  0  0  0  0  0  0  0  0
    3.6883   -0.0118    0.0000 C   0  0  0  0  0  0  0  0  0
    4.4028   -0.4243    0.0000 C   0  0  0  0  0  0  0  0  0
    5.1172   -0.0118    0.0000 F   0  0  0  0  0  0  0  0  0
  1  2  1  0  0  0  0
  2  3  4  0  0  0  0
  2 15  4  0  0  0  0
  3  4  4  0  0  0  0
  4  5  4  0  0  0  0
  4  8  4  0  0  0  0
  5  6  4  0  0  0  0
  5 14  4  0  0  0  0
  6  7  4  0  0  0  0
  6  9  1  0  0  0  0
  7  8  4  0  0  0  0
  9 10  1  0  0  0  0
 10 11  1  0  0  0  0
 11 12  1  0  0  0  0
 11 13  1  0  0  0  0
 14 15  4  0  0  0  0
 15 16  1  0  0  0  0
M  END
>  <Name_Molregno>
59545

>  <5-HT2A>
6.42

$$$$
59573
  Marvin  02231216192D 0   1.00000     0.00000     0

 14 16  0  0  0  0  0  0  0  0999 V2000
   -1.7363   -2.7555    0.0000 Cl  0  0  0  0  0  0  0  0  0
   -1.9913   -1.9709    0.0000 C   0  0  0  0  0  0  0  0  0
   -1.4393   -1.3578    0.0000 C   0  0  0  0  0  0  0  0  0
   -0.6143   -1.3578    0.0000 N   0  0  0  0  0  0  0  0  0
   -0.3593   -0.5732    0.0000 C   0  0  0  0  0  0  0  0  0
    0.4477   -0.4017    0.0000 C   0  0  0  0  0  0  0  0  0
    0.9997   -1.0148    0.0000 N   0  0  0  0  0  0  0  0  0
    0.7448   -1.7994    0.0000 C   0  0  0  0  0  0  0  0  0
   -0.0622   -1.9709    0.0000 C   0  0  0  0  0  0  0  0  0
   -1.0268   -0.0883    0.0000 C   0  0  0  0  0  0  0  0  0
   -1.6942   -0.5732    0.0000 C   0  0  0  0  0  0  0  0  0
   -2.5012   -0.4017    0.0000 C   0  0  0  0  0  0  0  0  0
   -3.0532   -1.0148    0.0000 C   0  0  0  0  0  0  0  0  0
   -2.7983   -1.7994    0.0000 C   0  0  0  0  0  0  0  0  0
  1  2  1  0  0  0  0
  2  3  4  0  0  0  0
  2 14  4  0  0  0  0
  3  4  4  0  0  0  0
  3 11  4  0  0  0  0
  4  5  4  0  0  0  0
  4  9  1  0  0  0  0
  5  6  1  0  0  0  0
  5 10  4  0  0  0  0
  6  7  1  0  0  0  0
  7  8  1  0  0  0  0
  8  9  1  0  0  0  0
 10 11  4  0  0  0  0
 11 12  4  0  0  0  0
 12 13  4  0  0  0  0
 13 14  4  0  0  0  0
M  END
>  <Name_Molregno>
59573

>  <5-HT2A>
6.34

$$$$
59851
  Marvin  02231216192D 0   1.00000     0.00000     0

 14 16  0  0  0  0  0  0  0  0999 V2000
    5.1883   -0.5270    0.0000 Cl  0  0  0  0  0  0  0  0  0
    4.3814   -0.3555    0.0000 C   0  0  0  0  0  0  0  0  0
    3.8293   -0.9686    0.0000 C   0  0  0  0  0  0  0  0  0
    3.0224   -0.7970    0.0000 C   0  0  0  0  0  0  0  0  0
    2.7674   -0.0124    0.0000 C   0  0  0  0  0  0  0  0  0
    1.9424   -0.0124    0.0000 N   0  0  0  0  0  0  0  0  0
    1.6875   -0.7970    0.0000 C   0  0  0  0  0  0  0  0  0
    0.8805   -0.9686    0.0000 C   0  0  0  0  0  0  0  0  0
    0.3285   -0.3555    0.0000 N   0  0  0  0  0  0  0  0  0
    0.5834    0.4292    0.0000 C   0  0  0  0  0  0  0  0  0
    1.3904    0.6007    0.0000 C   0  0  0  0  0  0  0  0  0
    2.3549   -1.2820    0.0000 C   0  0  0  0  0  0  0  0  0
    3.3195    0.6007    0.0000 C   0  0  0  0  0  0  0  0  0
    4.1264    0.4292    0.0000 C   0  0  0  0  0  0  0  0  0
  1  2  1  0  0  0  0
  2  3  4  0  0  0  0
  2 14  4  0  0  0  0
  3  4  4  0  0  0  0
  4  5  4  0  0  0  0
  4 12  4  0  0  0  0
  5  6  4  0  0  0  0
  5 13  4  0  0  0  0
  6  7  4  0  0  0  0
  6 11  1  0  0  0  0
  7  8  1  0  0  0  0
  7 12  4  0  0  0  0
  8  9  1  0  0  0  0
  9 10  1  0  0  0  0
 10 11  1  0  0  0  0
 13 14  4  0  0  0  0
M  END
>  <Name_Molregno>
59851

>  <5-HT2A>
6.14

$$$$
59852
  Marvin  02231216192D 0   1.00000     0.00000     0

 15 17  0  0  0  0  0  0  0  0999 V2000
   -0.8593   -2.8336    0.0000 O   0  0  0  0  0  0  0  0  0
   -1.4114   -3.4466    0.0000 C   0  0  0  0  0  0  0  0  0
   -1.1143   -2.0489    0.0000 C   0  0  0  0  0  0  0  0  0
   -0.5622   -1.4358    0.0000 C   0  0  0  0  0  0  0  0  0
    0.2628   -1.4358    0.0000 N   0  0  0  0  0  0  0  0  0
    0.5177   -0.6512    0.0000 C   0  0  0  0  0  0  0  0  0
    1.3247   -0.4797    0.0000 C   0  0  0  0  0  0  0  0  0
    1.8767   -1.0928    0.0000 N   0  0  0  0  0  0  0  0  0
    1.6218   -1.8774    0.0000 C   0  0  0  0  0  0  0  0  0
    0.8148   -2.0489    0.0000 C   0  0  0  0  0  0  0  0  0
   -0.1497   -0.1663    0.0000 C   0  0  0  0  0  0  0  0  0
   -0.8172   -0.6512    0.0000 C   0  0  0  0  0  0  0  0  0
   -1.6241   -0.4797    0.0000 C   0  0  0  0  0  0  0  0  0
   -2.1762   -1.0928    0.0000 C   0  0  0  0  0  0  0  0  0
   -1.9212   -1.8774    0.0000 C   0  0  0  0  0  0  0  0  0
  1  2  1  0  0  0  0
  1  3  1  0  0  0  0
  3  4  4  0  0  0  0
  3 15  4  0  0  0  0
  4  5  4  0  0  0  0
  4 12  4  0  0  0  0
  5  6  4  0  0  0  0
  5 10  1  0  0  0  0
  6  7  1  0  0  0  0
  6 11  4  0  0  0  0
  7  8  1  0  0  0  0
  8  9  1  0  0  0  0
  9 10  1  0  0  0  0
 11 12  4  0  0  0  0
 12 13  4  0  0  0  0
 13 14  4  0  0  0  0
 14 15  4  0  0  0  0
M  END
>  <Name_Molregno>
59852

>  <5-HT2A>
6.26

$$$$
59878
  Marvin  02231216192D 0   1.00000     0.00000     0

 15 17  0  0  0  0  0  0  0  0999 V2000
    5.1888   -0.5374    0.0000 Cl  0  0  0  0  0  0  0  0  0
    4.3818   -0.3659    0.0000 C   0  0  0  0  0  0  0  0  0
    3.8298   -0.9790    0.0000 C   0  0  0  0  0  0  0  0  0
    3.0228   -0.8075    0.0000 C   0  0  0  0  0  0  0  0  0
    2.7679   -0.0228    0.0000 C   0  0  0  0  0  0  0  0  0
    1.9429   -0.0228    0.0000 N   0  0  0  0  0  0  0  0  0
    1.6879   -0.8075    0.0000 C   0  0  0  0  0  0  0  0  0
    0.8809   -0.9790    0.0000 C   0  0  0  0  0  0  0  0  0
    0.3289   -0.3659    0.0000 N   0  0  0  0  0  0  0  0  0
    0.5839    0.4187    0.0000 C   0  0  0  0  0  0  0  0  0
    1.3908    0.5903    0.0000 C   0  0  0  0  0  0  0  0  0
    2.3554   -1.2924    0.0000 C   0  0  0  0  0  0  0  0  0
    2.3554   -2.1174    0.0000 C   0  0  0  0  0  0  0  0  0
    3.3199    0.5903    0.0000 C   0  0  0  0  0  0  0  0  0
    4.1269    0.4187    0.0000 C   0  0  0  0  0  0  0  0  0
  1  2  1  0  0  0  0
  2  3  4  0  0  0  0
  2 15  4  0  0  0  0
  3  4  4  0  0  0  0
  4  5  4  0  0  0  0
  4 12  4  0  0  0  0
  5  6  4  0  0  0  0
  5 14  4  0  0  0  0
  6  7  4  0  0  0  0
  6 11  1  0  0  0  0
  7  8  1  0  0  0  0
  7 12  4  0  0  0  0
  8  9  1  0  0  0  0
  9 10  1  0  0  0  0
 10 11  1  0  0  0  0
 12 13  1  0  0  0  0
 14 15  4  0  0  0  0
M  END
>  <Name_Molregno>
59878

>  <5-HT2A>
5.9

$$$$
60061
  Marvin  02231216192D 0   1.00000     0.00000     0

 14 15  0  0  0  0  0  0  0  0999 V2000
   -0.5264    0.0220    0.0000 N   0  0  0  0  0  0  0  0  0
    0.2582    0.2769    0.0000 C   0  0  0  0  0  0  0  0  0
    0.2582    1.1019    0.0000 C   0  0  0  0  0  0  0  0  0
    0.9727    1.5144    0.0000 C   0  0  0  0  0  0  0  0  0
    1.6872    1.1019    0.0000 C   0  0  0  0  0  0  0  0  0
    1.6872    0.2769    0.0000 C   0  0  0  0  0  0  0  0  0
    0.9727   -0.1356    0.0000 C   0  0  0  0  0  0  0  0  0
   -0.5264    1.3569    0.0000 C   0  0  0  0  0  0  0  0  0
   -1.0113    0.6894    0.0000 C   0  0  0  0  0  0  0  0  0
   -0.7813   -0.7626    0.0000 C   0  0  0  0  0  0  0  0  0
   -0.2293   -1.3757    0.0000 C   0  0  0  0  0  0  0  0  0
   -0.4842   -2.1604    0.0000 N   0  0  0  0  0  0  0  0  0
    0.0678   -2.7735    0.0000 C   0  0  0  0  0  0  0  0  0
   -1.2912   -2.3319    0.0000 C   0  0  0  0  0  0  0  0  0
  1  2  4  0  0  0  0
  1  9  4  0  0  0  0
  1 10  1  0  0  0  0
  2  3  4  0  0  0  0
  2  7  4  0  0  0  0
  3  4  4  0  0  0  0
  3  8  4  0  0  0  0
  4  5  4  0  0  0  0
  5  6  4  0  0  0  0
  6  7  4  0  0  0  0
  8  9  4  0  0  0  0
 10 11  1  0  0  0  0
 11 12  1  0  0  0  0
 12 13  1  0  0  0  0
 12 14  1  0  0  0  0
M  END
>  <Name_Molregno>
60061

>  <5-HT2A>
6.2

>  <5-HT6>
5.3

$$$$
60062
  Marvin  02231216192D 0   1.00000     0.00000     0

 16 17  0  0  0  0  0  0  0  0999 V2000
    0.0484   -1.1205    0.0000 O   0  0  0  0  0  0  0  0  0
    0.7628   -0.7080    0.0000 C   0  0  0  0  0  0  0  0  0
   -0.6661   -0.7080    0.0000 C   0  0  0  0  0  0  0  0  0
   -1.3806   -1.1205    0.0000 C   0  0  0  0  0  0  0  0  0
   -2.0951   -0.7080    0.0000 C   0  0  0  0  0  0  0  0  0
   -2.8797   -0.9629    0.0000 N   0  0  0  0  0  0  0  0  0
   -3.3646   -0.2955    0.0000 C   0  0  0  0  0  0  0  0  0
   -2.8797    0.3720    0.0000 C   0  0  0  0  0  0  0  0  0
   -2.0951    0.1170    0.0000 C   0  0  0  0  0  0  0  0  0
   -1.3806    0.5295    0.0000 C   0  0  0  0  0  0  0  0  0
   -0.6661    0.1170    0.0000 C   0  0  0  0  0  0  0  0  0
   -3.1346   -1.7475    0.0000 C   0  0  0  0  0  0  0  0  0
   -2.5826   -2.3606    0.0000 C   0  0  0  0  0  0  0  0  0
   -2.8375   -3.1452    0.0000 N   0  0  0  0  0  0  0  0  0
   -2.2855   -3.7583    0.0000 C   0  0  0  0  0  0  0  0  0
   -3.6445   -3.3168    0.0000 C   0  0  0  0  0  0  0  0  0
  1  2  1  0  0  0  0
  1  3  1  0  0  0  0
  3  4  4  0  0  0  0
  3 11  4  0  0  0  0
  4  5  4  0  0  0  0
  5  6  4  0  0  0  0
  5  9  4  0  0  0  0
  6  7  4  0  0  0  0
  6 12  1  0  0  0  0
  7  8  4  0  0  0  0
  8  9  4  0  0  0  0
  9 10  4  0  0  0  0
 10 11  4  0  0  0  0
 12 13  1  0  0  0  0
 13 14  1  0  0  0  0
 14 15  1  0  0  0  0
 14 16  1  0  0  0  0
M  END
>  <Name_Molregno>
60062

>  <5-HT2A>
5.98

$$$$
60068
  Marvin  02231216192D 0   1.00000     0.00000     0

 15 16  0  0  1  0  0  0  0  0999 V2000
    4.4044   -1.3275    0.0000 F   0  0  0  0  0  0  0  0  0
    3.6899   -0.9150    0.0000 C   0  0  0  0  0  0  0  0  0
    2.9755   -1.3275    0.0000 C   0  0  0  0  0  0  0  0  0
    2.2610   -0.9150    0.0000 C   0  0  0  0  0  0  0  0  0
    2.2610   -0.0900    0.0000 C   0  0  0  0  0  0  0  0  0
    1.4764    0.1649    0.0000 N   0  0  0  0  0  0  0  0  0
    0.9915   -0.5025    0.0000 C   0  0  0  0  0  0  0  0  0
    1.4764   -1.1700    0.0000 C   0  0  0  0  0  0  0  0  0
    1.2214    0.9495    0.0000 C   0  0  0  0  0  0  0  0  0
    1.7735    1.5626    0.0000 C   0  0  0  0  0  0  0  0  0
    1.5185    2.3472    0.0000 N   0  0  0  0  0  0  0  0  0
    2.5804    1.3911    0.0000 C   0  0  0  0  0  0  0  0  0
    2.9755    0.3225    0.0000 C   0  0  0  0  0  0  0  0  0
    3.6899   -0.0900    0.0000 C   0  0  0  0  0  0  0  0  0
    4.4044    0.3225    0.0000 F   0  0  0  0  0  0  0  0  0
  1  2  1  0  0  0  0
  2  3  4  0  0  0  0
  2 14  4  0  0  0  0
  3  4  4  0  0  0  0
  4  5  4  0  0  0  0
  4  8  4  0  0  0  0
  5  6  4  0  0  0  0
  5 13  4  0  0  0  0
  6  7  4  0  0  0  0
  6  9  1  0  0  0  0
  7  8  4  0  0  0  0
  9 10  1  0  0  0  0
 10 11  1  0  0  0  0
 10 12  1  0  0  0  0
 13 14  4  0  0  0  0
 14 15  1  0  0  0  0
M  END
>  <Name_Molregno>
60068

>  <5-HT2A>
7

>  <5-HT2C>
9

$$$$
60171
  Marvin  02231216192D 0   1.00000     0.00000     0

 14 16  0  0  0  0  0  0  0  0999 V2000
    0.2061   -1.7016    0.0000 Cl  0  0  0  0  0  0  0  0  0
    0.7581   -1.0885    0.0000 C   0  0  0  0  0  0  0  0  0
    1.5651   -1.2601    0.0000 C   0  0  0  0  0  0  0  0  0
    2.1171   -0.6470    0.0000 C   0  0  0  0  0  0  0  0  0
    2.9421   -0.6470    0.0000 N   0  0  0  0  0  0  0  0  0
    3.1971    0.1377    0.0000 C   0  0  0  0  0  0  0  0  0
    4.0040    0.3092    0.0000 C   0  0  0  0  0  0  0  0  0
    4.5561   -0.3039    0.0000 N   0  0  0  0  0  0  0  0  0
    4.3011   -1.0885    0.0000 C   0  0  0  0  0  0  0  0  0
    3.4941   -1.2601    0.0000 C   0  0  0  0  0  0  0  0  0
    2.5296    0.6226    0.0000 C   0  0  0  0  0  0  0  0  0
    1.8622    0.1377    0.0000 C   0  0  0  0  0  0  0  0  0
    1.0552    0.3092    0.0000 C   0  0  0  0  0  0  0  0  0
    0.5032   -0.3039    0.0000 C   0  0  0  0  0  0  0  0  0
  1  2  1  0  0  0  0
  2  3  4  0  0  0  0
  2 14  4  0  0  0  0
  3  4  4  0  0  0  0
  4  5  4  0  0  0  0
  4 12  4  0  0  0  0
  5  6  4  0  0  0  0
  5 10  1  0  0  0  0
  6  7  1  0  0  0  0
  6 11  4  0  0  0  0
  7  8  1  0  0  0  0
  8  9  1  0  0  0  0
  9 10  1  0  0  0  0
 11 12  4  0  0  0  0
 12 13  4  0  0  0  0
 13 14  4  0  0  0  0
M  END
>  <Name_Molregno>
60171

>  <5-HT2A>
7.17

$$$$
61691
  Marvin  02231216192D 0   1.00000     0.00000     0

 21 23  0  0  0  0  0  0  0  0999 V2000
   -0.1018   -0.6801    0.0000 Cl  0  0  0  0  0  0  0  0  0
   -0.8163   -0.2676    0.0000 C   0  0  0  0  0  0  0  0  0
   -1.5307   -0.6801    0.0000 C   0  0  0  0  0  0  0  0  0
   -2.2452   -0.2676    0.0000 C   0  0  0  0  0  0  0  0  0
   -3.0298   -0.5225    0.0000 N   0  0  0  0  0  0  0  0  0
   -3.5147    0.1449    0.0000 C   0  0  0  0  0  0  0  0  0
   -3.0298    0.8124    0.0000 C   0  0  0  0  0  0  0  0  0
   -2.2452    0.5574    0.0000 C   0  0  0  0  0  0  0  0  0
   -1.5307    0.9699    0.0000 C   0  0  0  0  0  0  0  0  0
   -0.8163    0.5574    0.0000 C   0  0  0  0  0  0  0  0  0
   -0.1018    0.9699    0.0000 S   0  0  0  0  0  0  0  0  0
   -0.1018    1.7949    0.0000 C   0  0  0  0  0  0  0  0  0
   -3.2848   -1.3071    0.0000 C   0  0  0  0  0  0  0  0  0
   -4.0917   -1.4787    0.0000 O   0  0  0  0  0  0  0  0  0
   -2.7327   -1.9202    0.0000 N   0  0  0  0  0  0  0  0  0
   -2.9877   -2.7048    0.0000 C   0  0  0  0  0  0  0  0  0
   -2.4356   -3.3179    0.0000 C   0  0  0  0  0  0  0  0  0
   -2.6906   -4.1026    0.0000 C   0  0  0  0  0  0  0  0  0
   -3.4975   -4.2741    0.0000 C   0  0  0  0  0  0  0  0  0
   -4.0496   -3.6610    0.0000 N   0  0  0  0  0  0  0  0  0
   -3.7946   -2.8764    0.0000 C   0  0  0  0  0  0  0  0  0
  1  2  1  0  0  0  0
  2  3  4  0  0  0  0
  2 10  4  0  0  0  0
  3  4  4  0  0  0  0
  4  5  1  0  0  0  0
  4  8  4  0  0  0  0
  5  6  1  0  0  0  0
  5 13  1  0  0  0  0
  6  7  1  0  0  0  0
  7  8  1  0  0  0  0
  8  9  4  0  0  0  0
  9 10  4  0  0  0  0
 10 11  1  0  0  0  0
 11 12  1  0  0  0  0
 13 14  2  0  0  0  0
 13 15  1  0  0  0  0
 15 16  1  0  0  0  0
 16 17  4  0  0  0  0
 16 21  4  0  0  0  0
 17 18  4  0  0  0  0
 18 19  4  0  0  0  0
 19 20  4  0  0  0  0
 20 21  4  0  0  0  0
M  END
>  <Name_Molregno>
61691

>  <5-HT2A>
5.6

>  <5-HT2C>
8.2

$$$$
61800
  Marvin  02231216192D 0   1.00000     0.00000     0

 21 24  0  0  0  0  0  0  0  0999 V2000
    0.8399   -0.0832    0.0000 N   0  0  0  0  0  0  0  0  0
    1.6245    0.1717    0.0000 C   0  0  0  0  0  0  0  0  0
    1.6245    0.9967    0.0000 C   0  0  0  0  0  0  0  0  0
    2.3389    1.4092    0.0000 C   0  0  0  0  0  0  0  0  0
    3.0534    0.9967    0.0000 C   0  0  0  0  0  0  0  0  0
    3.0534    0.1717    0.0000 C   0  0  0  0  0  0  0  0  0
    2.3389   -0.2408    0.0000 C   0  0  0  0  0  0  0  0  0
    0.8399    1.2517    0.0000 C   0  0  0  0  0  0  0  0  0
    0.3549    0.5842    0.0000 C   0  0  0  0  0  0  0  0  0
   -0.4701    0.5842    0.0000 C   0  0  0  0  0  0  0  0  0
   -0.8826   -0.1303    0.0000 C   0  0  0  0  0  0  0  0  0
   -1.7076   -0.1303    0.0000 C   0  0  0  0  0  0  0  0  0
   -2.1201    0.5842    0.0000 C   0  0  0  0  0  0  0  0  0
   -1.7076    1.2987    0.0000 C   0  0  0  0  0  0  0  0  0
   -0.8826    1.2987    0.0000 C   0  0  0  0  0  0  0  0  0
    0.5849    2.0363    0.0000 C   0  0  0  0  0  0  0  0  0
   -0.2221    2.2078    0.0000 C   0  0  0  0  0  0  0  0  0
   -0.4770    2.9924    0.0000 C   0  0  0  0  0  0  0  0  0
    0.0750    3.6055    0.0000 N   0  0  0  0  0  0  0  0  0
    0.8820    3.4340    0.0000 C   0  0  0  0  0  0  0  0  0
    1.1369    2.6494    0.0000 C   0  0  0  0  0  0  0  0  0
  1  2  4  0  0  0  0
  1  9  4  0  0  0  0
  2  3  4  0  0  0  0
  2  7  4  0  0  0  0
  3  4  4  0  0  0  0
  3  8  4  0  0  0  0
  4  5  4  0  0  0  0
  5  6  4  0  0  0  0
  6  7  4  0  0  0  0
  8  9  4  0  0  0  0
  8 16  1  0  0  0  0
  9 10  1  0  0  0  0
 10 11  4  0  0  0  0
 10 15  4  0  0  0  0
 11 12  4  0  0  0  0
 12 13  4  0  0  0  0
 13 14  4  0  0  0  0
 14 15  4  0  0  0  0
 16 17  1  0  0  0  0
 16 21  1  0  0  0  0
 17 18  1  0  0  0  0
 18 19  1  0  0  0  0
 19 20  1  0  0  0  0
 20 21  1  0  0  0  0
M  STY  1   1 DAT
M  SAL   1  1   1
M  SDT   1 MRV_IMPLICIT_H                                        
M  SDD   1     0.0000    0.0000    DR    ALL  0       0  
M  SED   1 IMPL_H1
M  END
>  <Name_Molregno>
61800

>  <5-HT2A>
7.92

$$$$
61811
  Marvin  02231216192D 0   1.00000     0.00000     0

 29 33  0  0  0  0  0  0  0  0999 V2000
   -1.7902   -2.3813    0.0000 N   0  0  0  0  0  0  0  0  0
   -1.0055   -2.1264    0.0000 C   0  0  0  0  0  0  0  0  0
   -1.0055   -1.3014    0.0000 C   0  0  0  0  0  0  0  0  0
   -0.2911   -0.8889    0.0000 C   0  0  0  0  0  0  0  0  0
    0.4234   -1.3014    0.0000 C   0  0  0  0  0  0  0  0  0
    0.4234   -2.1264    0.0000 C   0  0  0  0  0  0  0  0  0
   -0.2911   -2.5389    0.0000 C   0  0  0  0  0  0  0  0  0
   -1.7902   -1.0465    0.0000 C   0  0  0  0  0  0  0  0  0
   -2.2751   -1.7139    0.0000 C   0  0  0  0  0  0  0  0  0
   -3.1001   -1.7139    0.0000 C   0  0  0  0  0  0  0  0  0
   -3.5126   -2.4284    0.0000 C   0  0  0  0  0  0  0  0  0
   -4.3376   -2.4284    0.0000 C   0  0  0  0  0  0  0  0  0
   -4.7501   -1.7139    0.0000 C   0  0  0  0  0  0  0  0  0
   -4.3376   -0.9994    0.0000 C   0  0  0  0  0  0  0  0  0
   -3.5126   -0.9994    0.0000 C   0  0  0  0  0  0  0  0  0
   -2.0451   -0.2618    0.0000 C   0  0  0  0  0  0  0  0  0
   -2.8521   -0.0903    0.0000 C   0  0  0  0  0  0  0  0  0
   -3.1070    0.6943    0.0000 C   0  0  0  0  0  0  0  0  0
   -2.5550    1.3074    0.0000 N   0  0  0  0  0  0  0  0  0
   -1.7480    1.1359    0.0000 C   0  0  0  0  0  0  0  0  0
   -1.4931    0.3513    0.0000 C   0  0  0  0  0  0  0  0  0
   -2.8099    2.0920    0.0000 C   0  0  0  0  0  0  0  0  0
   -3.6169    2.2636    0.0000 C   0  0  0  0  0  0  0  0  0
   -3.8718    3.0482    0.0000 C   0  0  0  0  0  0  0  0  0
   -4.6788    3.2197    0.0000 C   0  0  0  0  0  0  0  0  0
   -4.9337    4.0043    0.0000 C   0  0  0  0  0  0  0  0  0
   -4.3817    4.6174    0.0000 C   0  0  0  0  0  0  0  0  0
   -3.5747    4.4459    0.0000 C   0  0  0  0  0  0  0  0  0
   -3.3198    3.6613    0.0000 C   0  0  0  0  0  0  0  0  0
  1  2  4  0  0  0  0
  1  9  4  0  0  0  0
  2  3  4  0  0  0  0
  2  7  4  0  0  0  0
  3  4  4  0  0  0  0
  3  8  4  0  0  0  0
  4  5  4  0  0  0  0
  5  6  4  0  0  0  0
  6  7  4  0  0  0  0
  8  9  4  0  0  0  0
  8 16  1  0  0  0  0
  9 10  1  0  0  0  0
 10 11  4  0  0  0  0
 10 15  4  0  0  0  0
 11 12  4  0  0  0  0
 12 13  4  0  0  0  0
 13 14  4  0  0  0  0
 14 15  4  0  0  0  0
 16 17  1  0  0  0  0
 16 21  1  0  0  0  0
 17 18  1  0  0  0  0
 18 19  1  0  0  0  0
 19 20  1  0  0  0  0
 19 22  1  0  0  0  0
 20 21  1  0  0  0  0
 22 23  1  0  0  0  0
 23 24  1  0  0  0  0
 24 25  4  0  0  0  0
 24 29  4  0  0  0  0
 25 26  4  0  0  0  0
 26 27  4  0  0  0  0
 27 28  4  0  0  0  0
 28 29  4  0  0  0  0
M  STY  1   1 DAT
M  SAL   1  1   1
M  SDT   1 MRV_IMPLICIT_H                                        
M  SDD   1     0.0000    0.0000    DR    ALL  0       0  
M  SED   1 IMPL_H1
M  END
>  <Name_Molregno>
61811

>  <5-HT2A>
9.3

$$$$
61850
  Marvin  02231216192D 0   1.00000     0.00000     0

 19 21  0  0  0  0  0  0  0  0999 V2000
    1.0806   -1.8564    0.0000 Cl  0  0  0  0  0  0  0  0  0
    0.3662   -1.4439    0.0000 C   0  0  0  0  0  0  0  0  0
   -0.3483   -1.8564    0.0000 C   0  0  0  0  0  0  0  0  0
   -1.0628   -1.4439    0.0000 C   0  0  0  0  0  0  0  0  0
   -1.8474   -1.6988    0.0000 N   0  0  0  0  0  0  0  0  0
   -2.3323   -1.0314    0.0000 C   0  0  0  0  0  0  0  0  0
   -1.8474   -0.3639    0.0000 C   0  0  0  0  0  0  0  0  0
   -1.0628   -0.6189    0.0000 C   0  0  0  0  0  0  0  0  0
   -0.3483   -0.2064    0.0000 C   0  0  0  0  0  0  0  0  0
    0.3662   -0.6189    0.0000 C   0  0  0  0  0  0  0  0  0
   -2.1024   -2.4834    0.0000 C   0  0  0  0  0  0  0  0  0
   -2.9093   -2.6550    0.0000 O   0  0  0  0  0  0  0  0  0
   -1.5503   -3.0965    0.0000 N   0  0  0  0  0  0  0  0  0
   -1.8053   -3.8812    0.0000 C   0  0  0  0  0  0  0  0  0
   -1.2532   -4.4943    0.0000 C   0  0  0  0  0  0  0  0  0
   -1.5082   -5.2789    0.0000 C   0  0  0  0  0  0  0  0  0
   -2.3151   -5.4504    0.0000 C   0  0  0  0  0  0  0  0  0
   -2.8672   -4.8373    0.0000 N   0  0  0  0  0  0  0  0  0
   -2.6122   -4.0527    0.0000 C   0  0  0  0  0  0  0  0  0
  1  2  1  0  0  0  0
  2  3  4  0  0  0  0
  2 10  4  0  0  0  0
  3  4  4  0  0  0  0
  4  5  1  0  0  0  0
  4  8  4  0  0  0  0
  5  6  1  0  0  0  0
  5 11  1  0  0  0  0
  6  7  1  0  0  0  0
  7  8  1  0  0  0  0
  8  9  4  0  0  0  0
  9 10  4  0  0  0  0
 11 12  2  0  0  0  0
 11 13  1  0  0  0  0
 13 14  1  0  0  0  0
 14 15  4  0  0  0  0
 14 19  4  0  0  0  0
 15 16  4  0  0  0  0
 16 17  4  0  0  0  0
 17 18  4  0  0  0  0
 18 19  4  0  0  0  0
M  END
>  <Name_Molregno>
61850

>  <5-HT2A>
6.1

>  <5-HT2C>
7.3

$$$$
62268
  Marvin  02231216192D 0   1.00000     0.00000     0

 20 22  0  0  0  0  0  0  0  0999 V2000
    6.0284   -2.4471    0.0000 Cl  0  0  0  0  0  0  0  0  0
    5.3139   -2.0346    0.0000 C   0  0  0  0  0  0  0  0  0
    4.5995   -2.4471    0.0000 C   0  0  0  0  0  0  0  0  0
    3.8850   -2.0346    0.0000 C   0  0  0  0  0  0  0  0  0
    3.1004   -2.2896    0.0000 C   0  0  0  0  0  0  0  0  0
    2.6155   -1.6221    0.0000 C   0  0  0  0  0  0  0  0  0
    3.1004   -0.9547    0.0000 N   0  0  0  0  0  0  0  0  0
    3.8850   -1.2096    0.0000 C   0  0  0  0  0  0  0  0  0
    4.5995   -0.7971    0.0000 C   0  0  0  0  0  0  0  0  0
    5.3139   -1.2096    0.0000 C   0  0  0  0  0  0  0  0  0
    6.0284   -0.7971    0.0000 Cl  0  0  0  0  0  0  0  0  0
    2.8454   -0.1701    0.0000 C   0  0  0  0  0  0  0  0  0
    3.3975    0.4430    0.0000 O   0  0  0  0  0  0  0  0  0
    2.0385    0.0015    0.0000 N   0  0  0  0  0  0  0  0  0
    1.7835    0.7861    0.0000 C   0  0  0  0  0  0  0  0  0
    0.9766    0.9576    0.0000 C   0  0  0  0  0  0  0  0  0
    0.7216    1.7422    0.0000 C   0  0  0  0  0  0  0  0  0
    1.2737    2.3553    0.0000 C   0  0  0  0  0  0  0  0  0
    2.0806    2.1838    0.0000 N   0  0  0  0  0  0  0  0  0
    2.3356    1.3992    0.0000 C   0  0  0  0  0  0  0  0  0
  1  2  1  0  0  0  0
  2  3  4  0  0  0  0
  2 10  4  0  0  0  0
  3  4  4  0  0  0  0
  4  5  1  0  0  0  0
  4  8  4  0  0  0  0
  5  6  1  0  0  0  0
  6  7  1  0  0  0  0
  7  8  1  0  0  0  0
  7 12  1  0  0  0  0
  8  9  4  0  0  0  0
  9 10  4  0  0  0  0
 10 11  1  0  0  0  0
 12 13  2  0  0  0  0
 12 14  1  0  0  0  0
 14 15  1  0  0  0  0
 15 16  4  0  0  0  0
 15 20  4  0  0  0  0
 16 17  4  0  0  0  0
 17 18  4  0  0  0  0
 18 19  4  0  0  0  0
 19 20  4  0  0  0  0
M  END
>  <Name_Molregno>
62268

>  <5-HT2A>
6.6

>  <5-HT2C>
8.1

$$$$
62359
  Marvin  02231216192D 0   1.00000     0.00000     0

 19 21  0  0  0  0  0  0  0  0999 V2000
    6.0200   -3.4714    0.0000 Cl  0  0  0  0  0  0  0  0  0
    5.3056   -3.0589    0.0000 C   0  0  0  0  0  0  0  0  0
    4.5911   -3.4714    0.0000 C   0  0  0  0  0  0  0  0  0
    3.8766   -3.0589    0.0000 C   0  0  0  0  0  0  0  0  0
    3.0920   -3.3139    0.0000 C   0  0  0  0  0  0  0  0  0
    2.6071   -2.6464    0.0000 C   0  0  0  0  0  0  0  0  0
    3.0920   -1.9790    0.0000 N   0  0  0  0  0  0  0  0  0
    3.8766   -2.2339    0.0000 C   0  0  0  0  0  0  0  0  0
    4.5911   -1.8214    0.0000 C   0  0  0  0  0  0  0  0  0
    5.3056   -2.2339    0.0000 C   0  0  0  0  0  0  0  0  0
    2.8371   -1.1944    0.0000 C   0  0  0  0  0  0  0  0  0
    3.3891   -0.5813    0.0000 O   0  0  0  0  0  0  0  0  0
    2.0301   -1.0228    0.0000 N   0  0  0  0  0  0  0  0  0
    1.7752   -0.2382    0.0000 C   0  0  0  0  0  0  0  0  0
    0.9682   -0.0667    0.0000 C   0  0  0  0  0  0  0  0  0
    0.7132    0.7179    0.0000 C   0  0  0  0  0  0  0  0  0
    1.2653    1.3310    0.0000 C   0  0  0  0  0  0  0  0  0
    2.0723    1.1595    0.0000 N   0  0  0  0  0  0  0  0  0
    2.3272    0.3749    0.0000 C   0  0  0  0  0  0  0  0  0
  1  2  1  0  0  0  0
  2  3  4  0  0  0  0
  2 10  4  0  0  0  0
  3  4  4  0  0  0  0
  4  5  1  0  0  0  0
  4  8  4  0  0  0  0
  5  6  1  0  0  0  0
  6  7  1  0  0  0  0
  7  8  1  0  0  0  0
  7 11  1  0  0  0  0
  8  9  4  0  0  0  0
  9 10  4  0  0  0  0
 11 12  2  0  0  0  0
 11 13  1  0  0  0  0
 13 14  1  0  0  0  0
 14 15  4  0  0  0  0
 14 19  4  0  0  0  0
 15 16  4  0  0  0  0
 16 17  4  0  0  0  0
 17 18  4  0  0  0  0
 18 19  4  0  0  0  0
M  END
>  <Name_Molregno>
62359

>  <5-HT2A>
5.6

>  <5-HT2C>
7.1

$$$$
62390
  Marvin  02231216192D 0   1.00000     0.00000     0

 20 22  0  0  0  0  0  0  0  0999 V2000
   -0.0380   -1.1144    0.0000 Cl  0  0  0  0  0  0  0  0  0
   -0.0380   -0.2894    0.0000 C   0  0  0  0  0  0  0  0  0
   -0.7525    0.1231    0.0000 C   0  0  0  0  0  0  0  0  0
   -1.5371   -0.1319    0.0000 N   0  0  0  0  0  0  0  0  0
   -2.0220    0.5356    0.0000 C   0  0  0  0  0  0  0  0  0
   -1.5371    1.2030    0.0000 C   0  0  0  0  0  0  0  0  0
   -0.7525    0.9481    0.0000 C   0  0  0  0  0  0  0  0  0
   -0.0380    1.3606    0.0000 C   0  0  0  0  0  0  0  0  0
    0.6765    0.9481    0.0000 C   0  0  0  0  0  0  0  0  0
    0.6765    0.1231    0.0000 C   0  0  0  0  0  0  0  0  0
    1.3909   -0.2894    0.0000 Cl  0  0  0  0  0  0  0  0  0
   -1.7920   -0.9165    0.0000 C   0  0  0  0  0  0  0  0  0
   -2.5990   -1.0880    0.0000 O   0  0  0  0  0  0  0  0  0
   -1.2400   -1.5296    0.0000 N   0  0  0  0  0  0  0  0  0
   -1.4949   -2.3142    0.0000 C   0  0  0  0  0  0  0  0  0
   -0.9429   -2.9273    0.0000 C   0  0  0  0  0  0  0  0  0
   -1.1978   -3.7119    0.0000 C   0  0  0  0  0  0  0  0  0
   -2.0048   -3.8835    0.0000 C   0  0  0  0  0  0  0  0  0
   -2.5569   -3.2704    0.0000 N   0  0  0  0  0  0  0  0  0
   -2.3019   -2.4857    0.0000 C   0  0  0  0  0  0  0  0  0
  1  2  1  0  0  0  0
  2  3  4  0  0  0  0
  2 10  4  0  0  0  0
  3  4  1  0  0  0  0
  3  7  4  0  0  0  0
  4  5  1  0  0  0  0
  4 12  1  0  0  0  0
  5  6  1  0  0  0  0
  6  7  1  0  0  0  0
  7  8  4  0  0  0  0
  8  9  4  0  0  0  0
  9 10  4  0  0  0  0
 10 11  1  0  0  0  0
 12 13  2  0  0  0  0
 12 14  1  0  0  0  0
 14 15  1  0  0  0  0
 15 16  4  0  0  0  0
 15 20  4  0  0  0  0
 16 17  4  0  0  0  0
 17 18  4  0  0  0  0
 18 19  4  0  0  0  0
 19 20  4  0  0  0  0
M  END
>  <Name_Molregno>
62390

>  <5-HT2A>
5.3

>  <5-HT2C>
6.1

$$$$
62581
  Marvin  02231216192D 0   1.00000     0.00000     0

 20 22  0  0  0  0  0  0  0  0999 V2000
    4.3558   -2.9294    0.0000 I   0  0  0  0  0  0  0  0  0
    4.3558   -2.1044    0.0000 C   0  0  0  0  0  0  0  0  0
    3.6413   -1.6919    0.0000 C   0  0  0  0  0  0  0  0  0
    2.8567   -1.9468    0.0000 C   0  0  0  0  0  0  0  0  0
    2.3717   -1.2794    0.0000 C   0  0  0  0  0  0  0  0  0
    2.8567   -0.6120    0.0000 N   0  0  0  0  0  0  0  0  0
    3.6413   -0.8669    0.0000 C   0  0  0  0  0  0  0  0  0
    4.3558   -0.4544    0.0000 C   0  0  0  0  0  0  0  0  0
    5.0702   -0.8669    0.0000 C   0  0  0  0  0  0  0  0  0
    5.0702   -1.6919    0.0000 C   0  0  0  0  0  0  0  0  0
    5.7847   -2.1044    0.0000 C   0  0  0  0  0  0  0  0  0
    2.6017    0.1727    0.0000 C   0  0  0  0  0  0  0  0  0
    3.1538    0.7858    0.0000 O   0  0  0  0  0  0  0  0  0
    1.7948    0.3442    0.0000 N   0  0  0  0  0  0  0  0  0
    1.5398    1.1288    0.0000 C   0  0  0  0  0  0  0  0  0
    0.7328    1.3003    0.0000 C   0  0  0  0  0  0  0  0  0
    0.4779    2.0850    0.0000 C   0  0  0  0  0  0  0  0  0
    1.0299    2.6981    0.0000 C   0  0  0  0  0  0  0  0  0
    1.8369    2.5265    0.0000 N   0  0  0  0  0  0  0  0  0
    2.0919    1.7419    0.0000 C   0  0  0  0  0  0  0  0  0
  1  2  1  0  0  0  0
  2  3  4  0  0  0  0
  2 10  4  0  0  0  0
  3  4  1  0  0  0  0
  3  7  4  0  0  0  0
  4  5  1  0  0  0  0
  5  6  1  0  0  0  0
  6  7  1  0  0  0  0
  6 12  1  0  0  0  0
  7  8  4  0  0  0  0
  8  9  4  0  0  0  0
  9 10  4  0  0  0  0
 10 11  1  0  0  0  0
 12 13  2  0  0  0  0
 12 14  1  0  0  0  0
 14 15  1  0  0  0  0
 15 16  4  0  0  0  0
 15 20  4  0  0  0  0
 16 17  4  0  0  0  0
 17 18  4  0  0  0  0
 18 19  4  0  0  0  0
 19 20  4  0  0  0  0
M  END
>  <Name_Molregno>
62581

>  <5-HT2A>
5.6

>  <5-HT2C>
7.6

$$$$
62623
  Marvin  02231216192D 0   1.00000     0.00000     0

 20 22  0  0  0  0  0  0  0  0999 V2000
    4.3558   -2.9294    0.0000 Br  0  0  0  0  0  0  0  0  0
    4.3558   -2.1044    0.0000 C   0  0  0  0  0  0  0  0  0
    3.6413   -1.6919    0.0000 C   0  0  0  0  0  0  0  0  0
    2.8567   -1.9468    0.0000 C   0  0  0  0  0  0  0  0  0
    2.3717   -1.2794    0.0000 C   0  0  0  0  0  0  0  0  0
    2.8567   -0.6120    0.0000 N   0  0  0  0  0  0  0  0  0
    3.6413   -0.8669    0.0000 C   0  0  0  0  0  0  0  0  0
    4.3558   -0.4544    0.0000 C   0  0  0  0  0  0  0  0  0
    5.0702   -0.8669    0.0000 C   0  0  0  0  0  0  0  0  0
    5.0702   -1.6919    0.0000 C   0  0  0  0  0  0  0  0  0
    5.7847   -2.1044    0.0000 C   0  0  0  0  0  0  0  0  0
    2.6017    0.1727    0.0000 C   0  0  0  0  0  0  0  0  0
    3.1538    0.7858    0.0000 O   0  0  0  0  0  0  0  0  0
    1.7948    0.3442    0.0000 N   0  0  0  0  0  0  0  0  0
    1.5398    1.1288    0.0000 C   0  0  0  0  0  0  0  0  0
    0.7328    1.3003    0.0000 C   0  0  0  0  0  0  0  0  0
    0.4779    2.0850    0.0000 C   0  0  0  0  0  0  0  0  0
    1.0299    2.6981    0.0000 C   0  0  0  0  0  0  0  0  0
    1.8369    2.5265    0.0000 N   0  0  0  0  0  0  0  0  0
    2.0919    1.7419    0.0000 C   0  0  0  0  0  0  0  0  0
  1  2  1  0  0  0  0
  2  3  4  0  0  0  0
  2 10  4  0  0  0  0
  3  4  1  0  0  0  0
  3  7  4  0  0  0  0
  4  5  1  0  0  0  0
  5  6  1  0  0  0  0
  6  7  1  0  0  0  0
  6 12  1  0  0  0  0
  7  8  4  0  0  0  0
  8  9  4  0  0  0  0
  9 10  4  0  0  0  0
 10 11  1  0  0  0  0
 12 13  2  0  0  0  0
 12 14  1  0  0  0  0
 14 15  1  0  0  0  0
 15 16  4  0  0  0  0
 15 20  4  0  0  0  0
 16 17  4  0  0  0  0
 17 18  4  0  0  0  0
 18 19  4  0  0  0  0
 19 20  4  0  0  0  0
M  END
>  <Name_Molregno>
62623

>  <5-HT2A>
6.9

>  <5-HT2C>
8.1

$$$$
62639
  Marvin  02231216192D 0   1.00000     0.00000     0

 20 22  0  0  0  0  0  0  0  0999 V2000
    6.0284   -2.4471    0.0000 Cl  0  0  0  0  0  0  0  0  0
    5.3139   -2.0346    0.0000 C   0  0  0  0  0  0  0  0  0
    4.5995   -2.4471    0.0000 C   0  0  0  0  0  0  0  0  0
    3.8850   -2.0346    0.0000 C   0  0  0  0  0  0  0  0  0
    3.1004   -2.2896    0.0000 C   0  0  0  0  0  0  0  0  0
    2.6155   -1.6221    0.0000 C   0  0  0  0  0  0  0  0  0
    3.1004   -0.9547    0.0000 N   0  0  0  0  0  0  0  0  0
    3.8850   -1.2096    0.0000 C   0  0  0  0  0  0  0  0  0
    4.5995   -0.7971    0.0000 C   0  0  0  0  0  0  0  0  0
    5.3139   -1.2096    0.0000 C   0  0  0  0  0  0  0  0  0
    6.0284   -0.7971    0.0000 C   0  0  0  0  0  0  0  0  0
    2.8454   -0.1701    0.0000 C   0  0  0  0  0  0  0  0  0
    3.3975    0.4430    0.0000 O   0  0  0  0  0  0  0  0  0
    2.0385    0.0015    0.0000 N   0  0  0  0  0  0  0  0  0
    1.7835    0.7861    0.0000 C   0  0  0  0  0  0  0  0  0
    0.9766    0.9576    0.0000 C   0  0  0  0  0  0  0  0  0
    0.7216    1.7422    0.0000 C   0  0  0  0  0  0  0  0  0
    1.2737    2.3553    0.0000 C   0  0  0  0  0  0  0  0  0
    2.0806    2.1838    0.0000 N   0  0  0  0  0  0  0  0  0
    2.3356    1.3992    0.0000 C   0  0  0  0  0  0  0  0  0
  1  2  1  0  0  0  0
  2  3  4  0  0  0  0
  2 10  4  0  0  0  0
  3  4  4  0  0  0  0
  4  5  1  0  0  0  0
  4  8  4  0  0  0  0
  5  6  1  0  0  0  0
  6  7  1  0  0  0  0
  7  8  1  0  0  0  0
  7 12  1  0  0  0  0
  8  9  4  0  0  0  0
  9 10  4  0  0  0  0
 10 11  1  0  0  0  0
 12 13  2  0  0  0  0
 12 14  1  0  0  0  0
 14 15  1  0  0  0  0
 15 16  4  0  0  0  0
 15 20  4  0  0  0  0
 16 17  4  0  0  0  0
 17 18  4  0  0  0  0
 18 19  4  0  0  0  0
 19 20  4  0  0  0  0
M  END
>  <Name_Molregno>
62639

>  <5-HT2A>
6.4

>  <5-HT2C>
8

$$$$
62657
  Marvin  02231216192D 0   1.00000     0.00000     0

 20 22  0  0  0  0  0  0  0  0999 V2000
    4.3558   -2.9294    0.0000 Cl  0  0  0  0  0  0  0  0  0
    4.3558   -2.1044    0.0000 C   0  0  0  0  0  0  0  0  0
    3.6413   -1.6919    0.0000 C   0  0  0  0  0  0  0  0  0
    2.8567   -1.9468    0.0000 C   0  0  0  0  0  0  0  0  0
    2.3717   -1.2794    0.0000 C   0  0  0  0  0  0  0  0  0
    2.8567   -0.6120    0.0000 N   0  0  0  0  0  0  0  0  0
    3.6413   -0.8669    0.0000 C   0  0  0  0  0  0  0  0  0
    4.3558   -0.4544    0.0000 C   0  0  0  0  0  0  0  0  0
    5.0702   -0.8669    0.0000 C   0  0  0  0  0  0  0  0  0
    5.0702   -1.6919    0.0000 C   0  0  0  0  0  0  0  0  0
    5.7847   -2.1044    0.0000 Cl  0  0  0  0  0  0  0  0  0
    2.6017    0.1727    0.0000 C   0  0  0  0  0  0  0  0  0
    3.1538    0.7858    0.0000 O   0  0  0  0  0  0  0  0  0
    1.7948    0.3442    0.0000 N   0  0  0  0  0  0  0  0  0
    1.5398    1.1288    0.0000 C   0  0  0  0  0  0  0  0  0
    0.7328    1.3003    0.0000 C   0  0  0  0  0  0  0  0  0
    0.4779    2.0850    0.0000 C   0  0  0  0  0  0  0  0  0
    1.0299    2.6981    0.0000 C   0  0  0  0  0  0  0  0  0
    1.8369    2.5265    0.0000 N   0  0  0  0  0  0  0  0  0
    2.0919    1.7419    0.0000 C   0  0  0  0  0  0  0  0  0
  1  2  1  0  0  0  0
  2  3  4  0  0  0  0
  2 10  4  0  0  0  0
  3  4  1  0  0  0  0
  3  7  4  0  0  0  0
  4  5  1  0  0  0  0
  5  6  1  0  0  0  0
  6  7  1  0  0  0  0
  6 12  1  0  0  0  0
  7  8  4  0  0  0  0
  8  9  4  0  0  0  0
  9 10  4  0  0  0  0
 10 11  1  0  0  0  0
 12 13  2  0  0  0  0
 12 14  1  0  0  0  0
 14 15  1  0  0  0  0
 15 16  4  0  0  0  0
 15 20  4  0  0  0  0
 16 17  4  0  0  0  0
 17 18  4  0  0  0  0
 18 19  4  0  0  0  0
 19 20  4  0  0  0  0
M  END
>  <Name_Molregno>
62657

>  <5-HT2A>
6.2

>  <5-HT2C>
7.6

$$$$
62658
  Marvin  02231216192D 0   1.00000     0.00000     0

 18 20  0  0  0  0  0  0  0  0999 V2000
    0.2285   -0.0656    0.0000 O   0  0  0  0  0  0  0  0  0
   -0.3236   -0.6787    0.0000 C   0  0  0  0  0  0  0  0  0
   -1.1305   -0.5072    0.0000 N   0  0  0  0  0  0  0  0  0
   -1.3855    0.2774    0.0000 C   0  0  0  0  0  0  0  0  0
   -2.1925    0.4490    0.0000 C   0  0  0  0  0  0  0  0  0
   -2.4474    1.2336    0.0000 C   0  0  0  0  0  0  0  0  0
   -1.8954    1.8467    0.0000 C   0  0  0  0  0  0  0  0  0
   -1.0884    1.6752    0.0000 N   0  0  0  0  0  0  0  0  0
   -0.8335    0.8905    0.0000 C   0  0  0  0  0  0  0  0  0
   -0.0686   -1.4633    0.0000 N   0  0  0  0  0  0  0  0  0
   -0.5536   -2.1308    0.0000 C   0  0  0  0  0  0  0  0  0
   -0.0686   -2.7982    0.0000 C   0  0  0  0  0  0  0  0  0
    0.7160   -2.5433    0.0000 C   0  0  0  0  0  0  0  0  0
    0.7160   -1.7183    0.0000 C   0  0  0  0  0  0  0  0  0
    1.4305   -1.3058    0.0000 C   0  0  0  0  0  0  0  0  0
    2.1449   -1.7183    0.0000 C   0  0  0  0  0  0  0  0  0
    2.1449   -2.5433    0.0000 C   0  0  0  0  0  0  0  0  0
    1.4305   -2.9558    0.0000 C   0  0  0  0  0  0  0  0  0
  1  2  2  0  0  0  0
  2  3  1  0  0  0  0
  2 10  1  0  0  0  0
  3  4  1  0  0  0  0
  4  5  4  0  0  0  0
  4  9  4  0  0  0  0
  5  6  4  0  0  0  0
  6  7  4  0  0  0  0
  7  8  4  0  0  0  0
  8  9  4  0  0  0  0
 10 11  1  0  0  0  0
 10 14  1  0  0  0  0
 11 12  1  0  0  0  0
 12 13  1  0  0  0  0
 13 14  4  0  0  0  0
 13 18  4  0  0  0  0
 14 15  4  0  0  0  0
 15 16  4  0  0  0  0
 16 17  4  0  0  0  0
 17 18  4  0  0  0  0
M  END
>  <Name_Molregno>
62658

>  <5-HT2A>
5

>  <5-HT2C>
5.9

$$$$
62698
  Marvin  02231216192D 0   1.00000     0.00000     0

 20 22  0  0  0  0  0  0  0  0999 V2000
   -0.1753   -0.4664    0.0000 Cl  0  0  0  0  0  0  0  0  0
   -0.8897   -0.0539    0.0000 C   0  0  0  0  0  0  0  0  0
   -1.6042   -0.4664    0.0000 C   0  0  0  0  0  0  0  0  0
   -2.3187   -0.0539    0.0000 C   0  0  0  0  0  0  0  0  0
   -3.1033   -0.3088    0.0000 N   0  0  0  0  0  0  0  0  0
   -3.5882    0.3586    0.0000 C   0  0  0  0  0  0  0  0  0
   -3.1033    1.0260    0.0000 C   0  0  0  0  0  0  0  0  0
   -2.3187    0.7711    0.0000 C   0  0  0  0  0  0  0  0  0
   -1.6042    1.1836    0.0000 C   0  0  0  0  0  0  0  0  0
   -0.8897    0.7711    0.0000 C   0  0  0  0  0  0  0  0  0
   -0.1753    1.1836    0.0000 C   0  0  0  0  0  0  0  0  0
   -3.3582   -1.0935    0.0000 C   0  0  0  0  0  0  0  0  0
   -4.1652   -1.2650    0.0000 O   0  0  0  0  0  0  0  0  0
   -2.8062   -1.7066    0.0000 N   0  0  0  0  0  0  0  0  0
   -3.0611   -2.4912    0.0000 C   0  0  0  0  0  0  0  0  0
   -2.5091   -3.1043    0.0000 C   0  0  0  0  0  0  0  0  0
   -2.7640   -3.8889    0.0000 C   0  0  0  0  0  0  0  0  0
   -3.5710   -4.0604    0.0000 C   0  0  0  0  0  0  0  0  0
   -4.1230   -3.4473    0.0000 N   0  0  0  0  0  0  0  0  0
   -3.8681   -2.6627    0.0000 C   0  0  0  0  0  0  0  0  0
  1  2  1  0  0  0  0
  2  3  4  0  0  0  0
  2 10  4  0  0  0  0
  3  4  4  0  0  0  0
  4  5  1  0  0  0  0
  4  8  4  0  0  0  0
  5  6  1  0  0  0  0
  5 12  1  0  0  0  0
  6  7  1  0  0  0  0
  7  8  1  0  0  0  0
  8  9  4  0  0  0  0
  9 10  4  0  0  0  0
 10 11  1  0  0  0  0
 12 13  2  0  0  0  0
 12 14  1  0  0  0  0
 14 15  1  0  0  0  0
 15 16  4  0  0  0  0
 15 20  4  0  0  0  0
 16 17  4  0  0  0  0
 17 18  4  0  0  0  0
 18 19  4  0  0  0  0
 19 20  4  0  0  0  0
M  END
>  <Name_Molregno>
62698

>  <5-HT2A>
6.8

>  <5-HT2C>
8.2

$$$$
62720
  Marvin  02231216192D 0   1.00000     0.00000     0

 22 25  0  0  0  0  0  0  0  0999 V2000
   -0.6108   -1.6501    0.0000 O   0  0  0  0  0  0  0  0  0
   -0.0588   -1.0370    0.0000 C   0  0  0  0  0  0  0  0  0
    0.7482   -1.2086    0.0000 N   0  0  0  0  0  0  0  0  0
    1.0031   -1.9932    0.0000 C   0  0  0  0  0  0  0  0  0
    1.8101   -2.1647    0.0000 C   0  0  0  0  0  0  0  0  0
    2.0650   -2.9493    0.0000 C   0  0  0  0  0  0  0  0  0
    1.5130   -3.5624    0.0000 C   0  0  0  0  0  0  0  0  0
    0.7060   -3.3909    0.0000 N   0  0  0  0  0  0  0  0  0
    0.4511   -2.6063    0.0000 C   0  0  0  0  0  0  0  0  0
   -0.3137   -0.2524    0.0000 N   0  0  0  0  0  0  0  0  0
    0.1712    0.4150    0.0000 C   0  0  0  0  0  0  0  0  0
   -0.3137    1.0825    0.0000 C   0  0  0  0  0  0  0  0  0
   -1.0984    0.8275    0.0000 C   0  0  0  0  0  0  0  0  0
   -1.0984    0.0025    0.0000 C   0  0  0  0  0  0  0  0  0
   -1.8128   -0.4100    0.0000 C   0  0  0  0  0  0  0  0  0
   -2.5273    0.0025    0.0000 C   0  0  0  0  0  0  0  0  0
   -2.5273    0.8275    0.0000 C   0  0  0  0  0  0  0  0  0
   -3.3119    1.0825    0.0000 N   0  0  0  0  0  0  0  0  0
   -3.7969    0.4150    0.0000 C   0  0  0  0  0  0  0  0  0
   -3.3119   -0.2524    0.0000 C   0  0  0  0  0  0  0  0  0
   -3.5669    1.8671    0.0000 C   0  0  0  0  0  0  0  0  0
   -1.8128    1.2400    0.0000 C   0  0  0  0  0  0  0  0  0
  1  2  2  0  0  0  0
  2  3  1  0  0  0  0
  2 10  1  0  0  0  0
  3  4  1  0  0  0  0
  4  5  4  0  0  0  0
  4  9  4  0  0  0  0
  5  6  4  0  0  0  0
  6  7  4  0  0  0  0
  7  8  4  0  0  0  0
  8  9  4  0  0  0  0
 10 11  1  0  0  0  0
 10 14  1  0  0  0  0
 11 12  1  0  0  0  0
 12 13  1  0  0  0  0
 13 14  4  0  0  0  0
 13 22  4  0  0  0  0
 14 15  4  0  0  0  0
 15 16  4  0  0  0  0
 16 17  4  0  0  0  0
 16 20  4  0  0  0  0
 17 18  4  0  0  0  0
 17 22  4  0  0  0  0
 18 19  4  0  0  0  0
 18 21  1  0  0  0  0
 19 20  4  0  0  0  0
M  END
>  <Name_Molregno>
62720

>  <5-HT1E>
5.3

>  <5-HT2A>
5.73

>  <5-HT2C>
8.02

>  <5-HT7>
6

>  <DOPAMINE D2>
5

>  <DOPAMINE D3>
5

>  <DOPAMINE D4>
5

$$$$
62734
  Marvin  02231216192D 0   1.00000     0.00000     0

 20 22  0  0  0  0  0  0  0  0999 V2000
   -0.1753   -0.4664    0.0000 I   0  0  0  0  0  0  0  0  0
   -0.8897   -0.0539    0.0000 C   0  0  0  0  0  0  0  0  0
   -1.6042   -0.4664    0.0000 C   0  0  0  0  0  0  0  0  0
   -2.3187   -0.0539    0.0000 C   0  0  0  0  0  0  0  0  0
   -3.1033   -0.3088    0.0000 N   0  0  0  0  0  0  0  0  0
   -3.5882    0.3586    0.0000 C   0  0  0  0  0  0  0  0  0
   -3.1033    1.0260    0.0000 C   0  0  0  0  0  0  0  0  0
   -2.3187    0.7711    0.0000 C   0  0  0  0  0  0  0  0  0
   -1.6042    1.1836    0.0000 C   0  0  0  0  0  0  0  0  0
   -0.8897    0.7711    0.0000 C   0  0  0  0  0  0  0  0  0
   -0.1753    1.1836    0.0000 C   0  0  0  0  0  0  0  0  0
   -3.3582   -1.0935    0.0000 C   0  0  0  0  0  0  0  0  0
   -4.1652   -1.2650    0.0000 O   0  0  0  0  0  0  0  0  0
   -2.8062   -1.7066    0.0000 N   0  0  0  0  0  0  0  0  0
   -3.0611   -2.4912    0.0000 C   0  0  0  0  0  0  0  0  0
   -2.5091   -3.1043    0.0000 C   0  0  0  0  0  0  0  0  0
   -2.7640   -3.8889    0.0000 C   0  0  0  0  0  0  0  0  0
   -3.5710   -4.0604    0.0000 C   0  0  0  0  0  0  0  0  0
   -4.1230   -3.4473    0.0000 N   0  0  0  0  0  0  0  0  0
   -3.8681   -2.6627    0.0000 C   0  0  0  0  0  0  0  0  0
  1  2  1  0  0  0  0
  2  3  4  0  0  0  0
  2 10  4  0  0  0  0
  3  4  4  0  0  0  0
  4  5  1  0  0  0  0
  4  8  4  0  0  0  0
  5  6  1  0  0  0  0
  5 12  1  0  0  0  0
  6  7  1  0  0  0  0
  7  8  1  0  0  0  0
  8  9  4  0  0  0  0
  9 10  4  0  0  0  0
 10 11  1  0  0  0  0
 12 13  2  0  0  0  0
 12 14  1  0  0  0  0
 14 15  1  0  0  0  0
 15 16  4  0  0  0  0
 15 20  4  0  0  0  0
 16 17  4  0  0  0  0
 17 18  4  0  0  0  0
 18 19  4  0  0  0  0
 19 20  4  0  0  0  0
M  END
>  <Name_Molregno>
62734

>  <5-HT2A>
7.2

>  <5-HT2C>
8.49

$$$$
62735
  Marvin  02231216192D 0   1.00000     0.00000     0

 20 22  0  0  0  0  0  0  0  0999 V2000
   -0.1753   -0.4664    0.0000 Br  0  0  0  0  0  0  0  0  0
   -0.8897   -0.0539    0.0000 C   0  0  0  0  0  0  0  0  0
   -1.6042   -0.4664    0.0000 C   0  0  0  0  0  0  0  0  0
   -2.3187   -0.0539    0.0000 C   0  0  0  0  0  0  0  0  0
   -3.1033   -0.3088    0.0000 N   0  0  0  0  0  0  0  0  0
   -3.5882    0.3586    0.0000 C   0  0  0  0  0  0  0  0  0
   -3.1033    1.0260    0.0000 C   0  0  0  0  0  0  0  0  0
   -2.3187    0.7711    0.0000 C   0  0  0  0  0  0  0  0  0
   -1.6042    1.1836    0.0000 C   0  0  0  0  0  0  0  0  0
   -0.8897    0.7711    0.0000 C   0  0  0  0  0  0  0  0  0
   -0.1753    1.1836    0.0000 C   0  0  0  0  0  0  0  0  0
   -3.3582   -1.0935    0.0000 C   0  0  0  0  0  0  0  0  0
   -4.1652   -1.2650    0.0000 O   0  0  0  0  0  0  0  0  0
   -2.8062   -1.7066    0.0000 N   0  0  0  0  0  0  0  0  0
   -3.0611   -2.4912    0.0000 C   0  0  0  0  0  0  0  0  0
   -2.5091   -3.1043    0.0000 C   0  0  0  0  0  0  0  0  0
   -2.7640   -3.8889    0.0000 C   0  0  0  0  0  0  0  0  0
   -3.5710   -4.0604    0.0000 C   0  0  0  0  0  0  0  0  0
   -4.1230   -3.4473    0.0000 N   0  0  0  0  0  0  0  0  0
   -3.8681   -2.6627    0.0000 C   0  0  0  0  0  0  0  0  0
  1  2  1  0  0  0  0
  2  3  4  0  0  0  0
  2 10  4  0  0  0  0
  3  4  4  0  0  0  0
  4  5  1  0  0  0  0
  4  8  4  0  0  0  0
  5  6  1  0  0  0  0
  5 12  1  0  0  0  0
  6  7  1  0  0  0  0
  7  8  1  0  0  0  0
  8  9  4  0  0  0  0
  9 10  4  0  0  0  0
 10 11  1  0  0  0  0
 12 13  2  0  0  0  0
 12 14  1  0  0  0  0
 14 15  1  0  0  0  0
 15 16  4  0  0  0  0
 15 20  4  0  0  0  0
 16 17  4  0  0  0  0
 17 18  4  0  0  0  0
 18 19  4  0  0  0  0
 19 20  4  0  0  0  0
M  END
>  <Name_Molregno>
62735

>  <5-HT2A>
7.2

>  <5-HT2C>
8.4

$$$$
62795
  Marvin  02231216192D 0   1.00000     0.00000     0

 20 22  0  0  0  0  0  0  0  0999 V2000
    6.0284   -2.4471    0.0000 I   0  0  0  0  0  0  0  0  0
    5.3139   -2.0346    0.0000 C   0  0  0  0  0  0  0  0  0
    4.5995   -2.4471    0.0000 C   0  0  0  0  0  0  0  0  0
    3.8850   -2.0346    0.0000 C   0  0  0  0  0  0  0  0  0
    3.1004   -2.2896    0.0000 C   0  0  0  0  0  0  0  0  0
    2.6155   -1.6221    0.0000 C   0  0  0  0  0  0  0  0  0
    3.1004   -0.9547    0.0000 N   0  0  0  0  0  0  0  0  0
    3.8850   -1.2096    0.0000 C   0  0  0  0  0  0  0  0  0
    4.5995   -0.7971    0.0000 C   0  0  0  0  0  0  0  0  0
    5.3139   -1.2096    0.0000 C   0  0  0  0  0  0  0  0  0
    6.0284   -0.7971    0.0000 Cl  0  0  0  0  0  0  0  0  0
    2.8454   -0.1701    0.0000 C   0  0  0  0  0  0  0  0  0
    3.3975    0.4430    0.0000 O   0  0  0  0  0  0  0  0  0
    2.0385    0.0015    0.0000 N   0  0  0  0  0  0  0  0  0
    1.7835    0.7861    0.0000 C   0  0  0  0  0  0  0  0  0
    0.9766    0.9576    0.0000 C   0  0  0  0  0  0  0  0  0
    0.7216    1.7422    0.0000 C   0  0  0  0  0  0  0  0  0
    1.2737    2.3553    0.0000 C   0  0  0  0  0  0  0  0  0
    2.0806    2.1838    0.0000 N   0  0  0  0  0  0  0  0  0
    2.3356    1.3992    0.0000 C   0  0  0  0  0  0  0  0  0
  1  2  1  0  0  0  0
  2  3  4  0  0  0  0
  2 10  4  0  0  0  0
  3  4  4  0  0  0  0
  4  5  1  0  0  0  0
  4  8  4  0  0  0  0
  5  6  1  0  0  0  0
  6  7  1  0  0  0  0
  7  8  1  0  0  0  0
  7 12  1  0  0  0  0
  8  9  4  0  0  0  0
  9 10  4  0  0  0  0
 10 11  1  0  0  0  0
 12 13  2  0  0  0  0
 12 14  1  0  0  0  0
 14 15  1  0  0  0  0
 15 16  4  0  0  0  0
 15 20  4  0  0  0  0
 16 17  4  0  0  0  0
 17 18  4  0  0  0  0
 18 19  4  0  0  0  0
 19 20  4  0  0  0  0
M  END
>  <Name_Molregno>
62795

>  <5-HT2A>
7

>  <5-HT2C>
8.49

$$$$
66613
  Marvin  02231216192D 0   1.00000     0.00000     0

 14 15  0  0  1  0  0  0  0  0999 V2000
   -3.5937   -0.7341    0.0000 O   0  0  0  0  0  0  0  0  0
   -2.8091   -0.9890    0.0000 C   0  0  0  0  0  0  0  0  0
   -2.0946   -0.5765    0.0000 C   0  0  0  0  0  0  0  0  0
   -1.3801   -0.9890    0.0000 C   0  0  0  0  0  0  0  0  0
   -1.3801   -1.8140    0.0000 C   0  0  0  0  0  0  0  0  0
   -2.0946   -2.2265    0.0000 C   0  0  0  0  0  0  0  0  0
   -2.8091   -1.8140    0.0000 C   0  0  0  0  0  0  0  0  0
   -3.5937   -2.0690    0.0000 O   0  0  0  0  0  0  0  0  0
   -4.0786   -1.4015    0.0000 C   0  0  0  0  0  0  0  0  0
   -0.6657   -0.5765    0.0000 C   0  0  0  0  0  0  0  0  0
   -0.6657    0.2485    0.0000 C   0  0  0  0  0  0  0  0  0
    0.0488    0.6610    0.0000 N   0  0  0  0  0  0  0  0  0
    0.0488    1.4860    0.0000 C   0  0  0  0  0  0  0  0  0
   -1.3801    0.6610    0.0000 C   0  0  0  0  0  0  0  0  0
  1  2  1  0  0  0  0
  1  9  1  0  0  0  0
  2  3  4  0  0  0  0
  2  7  4  0  0  0  0
  3  4  4  0  0  0  0
  4  5  4  0  0  0  0
  4 10  1  0  0  0  0
  5  6  4  0  0  0  0
  6  7  4  0  0  0  0
  7  8  1  0  0  0  0
  8  9  1  0  0  0  0
 10 11  1  0  0  0  0
 11 12  1  0  0  0  0
 11 14  1  0  0  0  0
 12 13  1  0  0  0  0
M  END
>  <Name_Molregno>
66613

>  <5-HT1A>
5

>  <5-HT1B>
5

>  <5-HT1D>
5

>  <5-HT1E>
5

>  <5-HT2A>
5

>  <5-HT3>
5

>  <5-HT5>
5

>  <5-HT6>
5

>  <5-HT7>
5

>  <Alpha-1A>
5

>  <Alpha-1B>
5

>  <Alpha-2A>
5.6

>  <Alpha-2B>
5.75

>  <Alpha-2C>
5.95

>  <Beta-1>
5

>  <Beta-2>
5

>  <DOPAMINE D1>
5

>  <DOPAMINE D2>
5

>  <DOPAMINE D3>
5

>  <DOPAMINE D4>
5

>  <DOPAMINE D5>
5

>  <Dopamine transporter>
5

>  <HISTAMINE H1>
5.67

>  <HISTAMINE H2>
5

>  <Muscarinic acetylcholine receptor M1>
5

>  <Muscarinic acetylcholine receptor M2>
5

>  <Muscarinic acetylcholine receptor M3>
5.73

>  <Muscarinic acetylcholine receptor M4>
5.08

>  <Muscarinic acetylcholine receptor M5>
5.2

>  <Norepinephrine transporter>
5

>  <Serotonin transporter>
7.24

$$$$
67202
  Marvin  02231216192D 0   1.00000     0.00000     0

 16 18  0  0  0  0  0  0  0  0999 V2000
    0.7920   -0.6190    0.0000 N   0  0  0  0  0  0  0  0  0
    1.5065   -0.2065    0.0000 C   0  0  0  0  0  0  0  0  0
    1.5065    0.6185    0.0000 C   0  0  0  0  0  0  0  0  0
    2.2209    1.0310    0.0000 C   0  0  0  0  0  0  0  0  0
    2.2209    1.8560    0.0000 C   0  0  0  0  0  0  0  0  0
    1.5065    2.2685    0.0000 C   0  0  0  0  0  0  0  0  0
    0.7920    1.8560    0.0000 C   0  0  0  0  0  0  0  0  0
    0.7920    1.0310    0.0000 C   0  0  0  0  0  0  0  0  0
    0.0775    0.6185    0.0000 C   0  0  0  0  0  0  0  0  0
   -0.6370    1.0310    0.0000 C   0  0  0  0  0  0  0  0  0
   -0.6370    1.8560    0.0000 C   0  0  0  0  0  0  0  0  0
    0.0775    2.2685    0.0000 C   0  0  0  0  0  0  0  0  0
    2.9354    2.2685    0.0000 C   0  0  0  0  0  0  0  0  0
    3.6499    1.8560    0.0000 C   0  0  0  0  0  0  0  0  0
    3.6499    1.0310    0.0000 C   0  0  0  0  0  0  0  0  0
    2.9354    0.6185    0.0000 C   0  0  0  0  0  0  0  0  0
  1  2  1  0  0  0  0
  2  3  1  0  0  0  0
  3  4  1  0  0  0  0
  3  8  1  0  0  0  0
  4  5  4  0  0  0  0
  4 16  4  0  0  0  0
  5  6  1  0  0  0  0
  5 13  4  0  0  0  0
  6  7  1  0  0  0  0
  7  8  4  0  0  0  0
  7 12  4  0  0  0  0
  8  9  4  0  0  0  0
  9 10  4  0  0  0  0
 10 11  4  0  0  0  0
 11 12  4  0  0  0  0
 13 14  4  0  0  0  0
 14 15  4  0  0  0  0
 15 16  4  0  0  0  0
M  END
>  <Name_Molregno>
67202

>  <5-HT2A>
7.7

>  <HISTAMINE H1>
6.71

$$$$
82738
  Marvin  02231216192D 0   1.00000     0.00000     0

 23 26  0  0  1  0  0  0  0  0999 V2000
    0.0943   -0.2888    0.0000 O   0  0  0  0  0  0  0  0  0
   -0.7127   -0.4603    0.0000 C   0  0  0  0  0  0  0  0  0
   -0.9676   -1.2450    0.0000 C   0  0  0  0  0  0  0  0  0
   -1.7746   -1.4165    0.0000 O   0  0  0  0  0  0  0  0  0
   -0.4156   -1.8581    0.0000 N   0  0  0  0  0  0  0  0  0
   -0.6705   -2.6427    0.0000 C   0  0  0  0  0  0  0  0  0
   -0.1700   -3.3633    0.0000 C   0  0  0  0  0  0  0  0  0
   -0.3533   -4.1522    0.0000 C   0  0  0  0  0  0  0  0  0
   -1.0724   -4.4494    0.0000 C   0  0  0  0  0  0  0  0  0
   -0.8767   -3.6479    0.0000 N   0  0  0  0  0  0  0  0  0
   -1.3910   -2.8938    0.0000 C   0  0  0  0  0  0  0  0  0
    0.1693   -3.5844    0.0000 C   0  0  0  0  0  0  0  0  0
    0.7165   -3.2272    0.0000 C   0  0  0  0  0  0  0  0  0
   -1.2647    0.1528    0.0000 C   0  0  0  0  0  0  0  0  0
   -1.0932    0.9597    0.0000 C   0  0  0  0  0  0  0  0  0
   -1.8077    1.3722    0.0000 C   0  0  0  0  0  0  0  0  0
   -2.4207    0.8202    0.0000 N   0  0  0  0  0  0  0  0  0
   -2.0852    0.0665    0.0000 C   0  0  0  0  0  0  0  0  0
   -3.2277    0.9917    0.0000 C   0  0  0  0  0  0  0  0  0
   -1.8077    2.1972    0.0000 C   0  0  0  0  0  0  0  0  0
   -1.0932    2.6097    0.0000 C   0  0  0  0  0  0  0  0  0
   -0.3787    2.1972    0.0000 C   0  0  0  0  0  0  0  0  0
   -0.3787    1.3722    0.0000 C   0  0  0  0  0  0  0  0  0
  1  2  2  0  0  0  0
  2  3  1  0  0  0  0
  2 14  1  0  0  0  0
  3  4  2  0  0  0  0
  3  5  1  0  0  0  0
  5  6  1  0  0  0  0
  6  7  1  0  0  0  0
  6 11  1  0  0  0  0
  7  8  1  0  0  0  0
  7 13  1  0  0  0  0
  8  9  1  0  0  0  0
  9 10  1  0  0  0  0
 10 11  1  0  0  0  0
 10 12  1  0  0  0  0
 12 13  1  0  0  0  0
 14 15  4  0  0  0  0
 14 18  4  0  0  0  0
 15 16  4  0  0  0  0
 15 23  4  0  0  0  0
 16 17  4  0  0  0  0
 16 20  4  0  0  0  0
 17 18  4  0  0  0  0
 17 19  1  0  0  0  0
 20 21  4  0  0  0  0
 21 22  4  0  0  0  0
 22 23  4  0  0  0  0
M  END
>  <Name_Molregno>
82738

>  <5-HT1D>
4.2

>  <5-HT2A>
4.75

>  <5-HT2C>
4.85

>  <Alpha-1B>
4.9

>  <Alpha-2A>
4.8

>  <Alpha-2B>
5.05

>  <DOPAMINE D1>
4

>  <DOPAMINE D2>
4

>  <Muscarinic acetylcholine receptor M1>
4.8

>  <Muscarinic acetylcholine receptor M2>
4.3

>  <Muscarinic acetylcholine receptor M3>
4.4

>  <Muscarinic acetylcholine receptor M4>
4.6

$$$$
83682
  Marvin  02231216192D 0   1.00000     0.00000     0

 26 29  0  0  0  0  0  0  0  0999 V2000
   -3.3285    2.4392    0.0000 O   0  0  0  0  0  0  0  0  0
   -4.1354    2.6108    0.0000 C   0  0  0  0  0  0  0  0  0
   -4.6875    1.9977    0.0000 C   0  0  0  0  0  0  0  0  0
   -5.4944    2.1692    0.0000 C   0  0  0  0  0  0  0  0  0
   -5.7494    2.9538    0.0000 C   0  0  0  0  0  0  0  0  0
   -5.1973    3.5669    0.0000 N   0  0  0  0  0  0  0  0  0
   -4.3904    3.3954    0.0000 C   0  0  0  0  0  0  0  0  0
   -3.8383    4.0085    0.0000 C   0  0  0  0  0  0  0  0  0
   -3.0735    1.6546    0.0000 C   0  0  0  0  0  0  0  0  0
   -2.2665    1.4831    0.0000 N   0  0  0  0  0  0  0  0  0
   -2.0116    0.6985    0.0000 C   0  0  0  0  0  0  0  0  0
   -2.5636    0.0854    0.0000 C   0  0  0  0  0  0  0  0  0
   -2.3087   -0.6992    0.0000 N   0  0  0  0  0  0  0  0  0
   -1.5017   -0.8708    0.0000 C   0  0  0  0  0  0  0  0  0
   -0.9497   -0.2577    0.0000 O   0  0  0  0  0  0  0  0  0
   -1.2468   -1.6554    0.0000 N   0  0  0  0  0  0  0  0  0
   -1.7317   -2.3228    0.0000 C   0  0  0  0  0  0  0  0  0
   -1.2468   -2.9903    0.0000 C   0  0  0  0  0  0  0  0  0
   -0.4622   -2.7353    0.0000 C   0  0  0  0  0  0  0  0  0
   -0.4622   -1.9103    0.0000 C   0  0  0  0  0  0  0  0  0
    0.2523   -1.4978    0.0000 C   0  0  0  0  0  0  0  0  0
    0.9668   -1.9103    0.0000 C   0  0  0  0  0  0  0  0  0
    0.9668   -2.7353    0.0000 C   0  0  0  0  0  0  0  0  0
    0.2523   -3.1478    0.0000 C   0  0  0  0  0  0  0  0  0
   -3.3706    0.2569    0.0000 C   0  0  0  0  0  0  0  0  0
   -3.6256    1.0415    0.0000 C   0  0  0  0  0  0  0  0  0
  1  2  1  0  0  0  0
  1  9  1  0  0  0  0
  2  3  4  0  0  0  0
  2  7  4  0  0  0  0
  3  4  4  0  0  0  0
  4  5  4  0  0  0  0
  5  6  4  0  0  0  0
  6  7  4  0  0  0  0
  7  8  1  0  0  0  0
  9 10  4  0  0  0  0
  9 26  4  0  0  0  0
 10 11  4  0  0  0  0
 11 12  4  0  0  0  0
 12 13  1  0  0  0  0
 12 25  4  0  0  0  0
 13 14  1  0  0  0  0
 14 15  2  0  0  0  0
 14 16  1  0  0  0  0
 16 17  1  0  0  0  0
 16 20  1  0  0  0  0
 17 18  1  0  0  0  0
 18 19  1  0  0  0  0
 19 20  4  0  0  0  0
 19 24  4  0  0  0  0
 20 21  4  0  0  0  0
 21 22  4  0  0  0  0
 22 23  4  0  0  0  0
 23 24  4  0  0  0  0
 25 26  4  0  0  0  0
M  END
>  <Name_Molregno>
83682

>  <5-HT2A>
5

>  <5-HT2C>
7

$$$$
83730
  Marvin  02231216192D 0   1.00000     0.00000     0

 28 31  0  0  0  0  0  0  0  0999 V2000
   -0.8204    1.1360    0.0000 Cl  0  0  0  0  0  0  0  0  0
   -1.5349    1.5485    0.0000 C   0  0  0  0  0  0  0  0  0
   -2.2494    1.1360    0.0000 C   0  0  0  0  0  0  0  0  0
   -2.9638    1.5485    0.0000 C   0  0  0  0  0  0  0  0  0
   -3.7485    1.2936    0.0000 N   0  0  0  0  0  0  0  0  0
   -4.2334    1.9610    0.0000 C   0  0  0  0  0  0  0  0  0
   -3.7485    2.6284    0.0000 C   0  0  0  0  0  0  0  0  0
   -2.9638    2.3735    0.0000 C   0  0  0  0  0  0  0  0  0
   -2.2494    2.7860    0.0000 C   0  0  0  0  0  0  0  0  0
   -1.5349    2.3735    0.0000 C   0  0  0  0  0  0  0  0  0
   -0.8204    2.7860    0.0000 F   0  0  0  0  0  0  0  0  0
   -4.0034    0.5089    0.0000 C   0  0  0  0  0  0  0  0  0
   -4.8104    0.3374    0.0000 O   0  0  0  0  0  0  0  0  0
   -3.4514   -0.1041    0.0000 N   0  0  0  0  0  0  0  0  0
   -3.7063   -0.8888    0.0000 C   0  0  0  0  0  0  0  0  0
   -3.1543   -1.5019    0.0000 C   0  0  0  0  0  0  0  0  0
   -3.4092   -2.2865    0.0000 C   0  0  0  0  0  0  0  0  0
   -4.2162   -2.4580    0.0000 C   0  0  0  0  0  0  0  0  0
   -4.4711   -3.2426    0.0000 O   0  0  0  0  0  0  0  0  0
   -5.2781   -3.4142    0.0000 C   0  0  0  0  0  0  0  0  0
   -5.5330   -4.1988    0.0000 C   0  0  0  0  0  0  0  0  0
   -6.3400   -4.3703    0.0000 C   0  0  0  0  0  0  0  0  0
   -6.8920   -3.7572    0.0000 C   0  0  0  0  0  0  0  0  0
   -6.6371   -2.9726    0.0000 N   0  0  0  0  0  0  0  0  0
   -5.8301   -2.8011    0.0000 C   0  0  0  0  0  0  0  0  0
   -5.5752   -2.0164    0.0000 C   0  0  0  0  0  0  0  0  0
   -4.7682   -1.8449    0.0000 N   0  0  0  0  0  0  0  0  0
   -4.5133   -1.0603    0.0000 C   0  0  0  0  0  0  0  0  0
  1  2  1  0  0  0  0
  2  3  4  0  0  0  0
  2 10  4  0  0  0  0
  3  4  4  0  0  0  0
  4  5  1  0  0  0  0
  4  8  4  0  0  0  0
  5  6  1  0  0  0  0
  5 12  1  0  0  0  0
  6  7  1  0  0  0  0
  7  8  1  0  0  0  0
  8  9  4  0  0  0  0
  9 10  4  0  0  0  0
 10 11  1  0  0  0  0
 12 13  2  0  0  0  0
 12 14  1  0  0  0  0
 14 15  1  0  0  0  0
 15 16  4  0  0  0  0
 15 28  4  0  0  0  0
 16 17  4  0  0  0  0
 17 18  4  0  0  0  0
 18 19  1  0  0  0  0
 18 27  4  0  0  0  0
 19 20  1  0  0  0  0
 20 21  4  0  0  0  0
 20 25  4  0  0  0  0
 21 22  4  0  0  0  0
 22 23  4  0  0  0  0
 23 24  4  0  0  0  0
 24 25  4  0  0  0  0
 25 26  1  0  0  0  0
 27 28  4  0  0  0  0
M  END
>  <Name_Molregno>
83730

>  <5-HT2A>
6.3

>  <5-HT2C>
8.2

$$$$
83784
  Marvin  02231216192D 0   1.00000     0.00000     0

 31 34  0  0  0  0  0  0  0  0999 V2000
    7.0875    0.5399    0.0000 F   0  0  0  0  0  0  0  0  0
    6.3730    0.9524    0.0000 C   0  0  0  0  0  0  0  0  0
    6.7855    1.6668    0.0000 F   0  0  0  0  0  0  0  0  0
    5.9605    0.2379    0.0000 F   0  0  0  0  0  0  0  0  0
    5.6586    1.3649    0.0000 C   0  0  0  0  0  0  0  0  0
    4.9441    0.9524    0.0000 C   0  0  0  0  0  0  0  0  0
    4.2296    1.3649    0.0000 C   0  0  0  0  0  0  0  0  0
    3.4450    1.1099    0.0000 N   0  0  0  0  0  0  0  0  0
    2.9601    1.7774    0.0000 C   0  0  0  0  0  0  0  0  0
    3.4450    2.4448    0.0000 C   0  0  0  0  0  0  0  0  0
    4.2296    2.1899    0.0000 C   0  0  0  0  0  0  0  0  0
    4.9441    2.6024    0.0000 C   0  0  0  0  0  0  0  0  0
    5.6586    2.1899    0.0000 C   0  0  0  0  0  0  0  0  0
    6.3730    2.6024    0.0000 C   0  0  0  0  0  0  0  0  0
    3.1901    0.3253    0.0000 C   0  0  0  0  0  0  0  0  0
    2.3831    0.1538    0.0000 O   0  0  0  0  0  0  0  0  0
    3.7421   -0.2878    0.0000 N   0  0  0  0  0  0  0  0  0
    3.4871   -1.0724    0.0000 C   0  0  0  0  0  0  0  0  0
    4.0392   -1.6855    0.0000 C   0  0  0  0  0  0  0  0  0
    3.7842   -2.4701    0.0000 C   0  0  0  0  0  0  0  0  0
    2.9773   -2.6416    0.0000 C   0  0  0  0  0  0  0  0  0
    2.7223   -3.4263    0.0000 O   0  0  0  0  0  0  0  0  0
    3.2744   -4.0394    0.0000 C   0  0  0  0  0  0  0  0  0
    3.0194   -4.8240    0.0000 C   0  0  0  0  0  0  0  0  0
    3.5715   -5.4371    0.0000 N   0  0  0  0  0  0  0  0  0
    3.3165   -6.2217    0.0000 C   0  0  0  0  0  0  0  0  0
    2.5095   -6.3932    0.0000 C   0  0  0  0  0  0  0  0  0
    1.9575   -5.7801    0.0000 C   0  0  0  0  0  0  0  0  0
    2.2125   -4.9955    0.0000 C   0  0  0  0  0  0  0  0  0
    2.4252   -2.0286    0.0000 N   0  0  0  0  0  0  0  0  0
    2.6802   -1.2439    0.0000 C   0  0  0  0  0  0  0  0  0
  1  2  1  0  0  0  0
  2  3  1  0  0  0  0
  2  4  1  0  0  0  0
  2  5  1  0  0  0  0
  5  6  4  0  0  0  0
  5 13  4  0  0  0  0
  6  7  4  0  0  0  0
  7  8  1  0  0  0  0
  7 11  4  0  0  0  0
  8  9  1  0  0  0  0
  8 15  1  0  0  0  0
  9 10  1  0  0  0  0
 10 11  1  0  0  0  0
 11 12  4  0  0  0  0
 12 13  4  0  0  0  0
 13 14  1  0  0  0  0
 15 16  2  0  0  0  0
 15 17  1  0  0  0  0
 17 18  1  0  0  0  0
 18 19  4  0  0  0  0
 18 31  4  0  0  0  0
 19 20  4  0  0  0  0
 20 21  4  0  0  0  0
 21 22  1  0  0  0  0
 21 30  4  0  0  0  0
 22 23  1  0  0  0  0
 23 24  1  0  0  0  0
 24 25  4  0  0  0  0
 24 29  4  0  0  0  0
 25 26  4  0  0  0  0
 26 27  4  0  0  0  0
 27 28  4  0  0  0  0
 28 29  4  0  0  0  0
 30 31  4  0  0  0  0
M  END
>  <Name_Molregno>
83784

>  <5-HT2A>
6.2

>  <5-HT2C>
9.3

$$$$
83835
  Marvin  02231216192D 0   1.00000     0.00000     0

 27 30  0  0  0  0  0  0  0  0999 V2000
    8.0751   -4.1041    0.0000 F   0  0  0  0  0  0  0  0  0
    7.3607   -3.6916    0.0000 C   0  0  0  0  0  0  0  0  0
    6.6462   -4.1041    0.0000 C   0  0  0  0  0  0  0  0  0
    5.9317   -3.6916    0.0000 C   0  0  0  0  0  0  0  0  0
    5.1471   -3.9465    0.0000 C   0  0  0  0  0  0  0  0  0
    4.6622   -3.2791    0.0000 C   0  0  0  0  0  0  0  0  0
    5.1471   -2.6116    0.0000 N   0  0  0  0  0  0  0  0  0
    5.9317   -2.8666    0.0000 C   0  0  0  0  0  0  0  0  0
    6.6462   -2.4541    0.0000 C   0  0  0  0  0  0  0  0  0
    7.3607   -2.8666    0.0000 C   0  0  0  0  0  0  0  0  0
    4.8922   -1.8270    0.0000 C   0  0  0  0  0  0  0  0  0
    5.4442   -1.2139    0.0000 O   0  0  0  0  0  0  0  0  0
    4.0852   -1.6555    0.0000 N   0  0  0  0  0  0  0  0  0
    3.8303   -0.8709    0.0000 C   0  0  0  0  0  0  0  0  0
    3.0233   -0.6993    0.0000 C   0  0  0  0  0  0  0  0  0
    2.7683    0.0853    0.0000 C   0  0  0  0  0  0  0  0  0
    3.3204    0.6984    0.0000 C   0  0  0  0  0  0  0  0  0
    3.0654    1.4830    0.0000 O   0  0  0  0  0  0  0  0  0
    3.6175    2.0961    0.0000 C   0  0  0  0  0  0  0  0  0
    3.3625    2.8807    0.0000 C   0  0  0  0  0  0  0  0  0
    3.9146    3.4938    0.0000 C   0  0  0  0  0  0  0  0  0
    4.7215    3.3223    0.0000 C   0  0  0  0  0  0  0  0  0
    4.9765    2.5377    0.0000 N   0  0  0  0  0  0  0  0  0
    4.4244    1.9246    0.0000 C   0  0  0  0  0  0  0  0  0
    4.6794    1.1399    0.0000 C   0  0  0  0  0  0  0  0  0
    4.1274    0.5268    0.0000 N   0  0  0  0  0  0  0  0  0
    4.3823   -0.2578    0.0000 C   0  0  0  0  0  0  0  0  0
  1  2  1  0  0  0  0
  2  3  4  0  0  0  0
  2 10  4  0  0  0  0
  3  4  4  0  0  0  0
  4  5  1  0  0  0  0
  4  8  4  0  0  0  0
  5  6  1  0  0  0  0
  6  7  1  0  0  0  0
  7  8  1  0  0  0  0
  7 11  1  0  0  0  0
  8  9  4  0  0  0  0
  9 10  4  0  0  0  0
 11 12  2  0  0  0  0
 11 13  1  0  0  0  0
 13 14  1  0  0  0  0
 14 15  4  0  0  0  0
 14 27  4  0  0  0  0
 15 16  4  0  0  0  0
 16 17  4  0  0  0  0
 17 18  1  0  0  0  0
 17 26  4  0  0  0  0
 18 19  1  0  0  0  0
 19 20  4  0  0  0  0
 19 24  4  0  0  0  0
 20 21  4  0  0  0  0
 21 22  4  0  0  0  0
 22 23  4  0  0  0  0
 23 24  4  0  0  0  0
 24 25  1  0  0  0  0
 26 27  4  0  0  0  0
M  END
>  <Name_Molregno>
83835

>  <5-HT2A>
5

>  <5-HT2C>
7.4

$$$$
83856
  Marvin  02231216192D 0   1.00000     0.00000     0

 27 30  0  0  0  0  0  0  0  0999 V2000
   -0.7587    0.6743    0.0000 Cl  0  0  0  0  0  0  0  0  0
   -1.4732    1.0868    0.0000 C   0  0  0  0  0  0  0  0  0
   -2.1877    0.6743    0.0000 C   0  0  0  0  0  0  0  0  0
   -2.9022    1.0868    0.0000 C   0  0  0  0  0  0  0  0  0
   -3.6868    0.8319    0.0000 N   0  0  0  0  0  0  0  0  0
   -4.1717    1.4993    0.0000 C   0  0  0  0  0  0  0  0  0
   -3.6868    2.1668    0.0000 C   0  0  0  0  0  0  0  0  0
   -2.9022    1.9118    0.0000 C   0  0  0  0  0  0  0  0  0
   -2.1877    2.3243    0.0000 C   0  0  0  0  0  0  0  0  0
   -1.4732    1.9118    0.0000 C   0  0  0  0  0  0  0  0  0
   -3.9417    0.0473    0.0000 C   0  0  0  0  0  0  0  0  0
   -4.7487   -0.1243    0.0000 O   0  0  0  0  0  0  0  0  0
   -3.3897   -0.5658    0.0000 N   0  0  0  0  0  0  0  0  0
   -3.6446   -1.3504    0.0000 C   0  0  0  0  0  0  0  0  0
   -3.0926   -1.9635    0.0000 C   0  0  0  0  0  0  0  0  0
   -3.3475   -2.7482    0.0000 C   0  0  0  0  0  0  0  0  0
   -4.1545   -2.9197    0.0000 C   0  0  0  0  0  0  0  0  0
   -4.4094   -3.7043    0.0000 O   0  0  0  0  0  0  0  0  0
   -5.2164   -3.8758    0.0000 C   0  0  0  0  0  0  0  0  0
   -5.4714   -4.6605    0.0000 C   0  0  0  0  0  0  0  0  0
   -6.2783   -4.8320    0.0000 C   0  0  0  0  0  0  0  0  0
   -6.8304   -4.2189    0.0000 C   0  0  0  0  0  0  0  0  0
   -6.5754   -3.4343    0.0000 N   0  0  0  0  0  0  0  0  0
   -5.7684   -3.2627    0.0000 C   0  0  0  0  0  0  0  0  0
   -5.5135   -2.4781    0.0000 C   0  0  0  0  0  0  0  0  0
   -4.7065   -2.3066    0.0000 N   0  0  0  0  0  0  0  0  0
   -4.4516   -1.5220    0.0000 C   0  0  0  0  0  0  0  0  0
  1  2  1  0  0  0  0
  2  3  4  0  0  0  0
  2 10  4  0  0  0  0
  3  4  4  0  0  0  0
  4  5  1  0  0  0  0
  4  8  4  0  0  0  0
  5  6  1  0  0  0  0
  5 11  1  0  0  0  0
  6  7  1  0  0  0  0
  7  8  1  0  0  0  0
  8  9  4  0  0  0  0
  9 10  4  0  0  0  0
 11 12  2  0  0  0  0
 11 13  1  0  0  0  0
 13 14  1  0  0  0  0
 14 15  4  0  0  0  0
 14 27  4  0  0  0  0
 15 16  4  0  0  0  0
 16 17  4  0  0  0  0
 17 18  1  0  0  0  0
 17 26  4  0  0  0  0
 18 19  1  0  0  0  0
 19 20  4  0  0  0  0
 19 24  4  0  0  0  0
 20 21  4  0  0  0  0
 21 22  4  0  0  0  0
 22 23  4  0  0  0  0
 23 24  4  0  0  0  0
 24 25  1  0  0  0  0
 26 27  4  0  0  0  0
M  END
>  <Name_Molregno>
83856

>  <5-HT2A>
6.5

>  <5-HT2C>
8.4

$$$$
83999
  Marvin  02231216192D 0   1.00000     0.00000     0

 27 30  0  0  0  0  0  0  0  0999 V2000
    8.0751   -4.1041    0.0000 Br  0  0  0  0  0  0  0  0  0
    7.3607   -3.6916    0.0000 C   0  0  0  0  0  0  0  0  0
    6.6462   -4.1041    0.0000 C   0  0  0  0  0  0  0  0  0
    5.9317   -3.6916    0.0000 C   0  0  0  0  0  0  0  0  0
    5.1471   -3.9465    0.0000 C   0  0  0  0  0  0  0  0  0
    4.6622   -3.2791    0.0000 C   0  0  0  0  0  0  0  0  0
    5.1471   -2.6116    0.0000 N   0  0  0  0  0  0  0  0  0
    5.9317   -2.8666    0.0000 C   0  0  0  0  0  0  0  0  0
    6.6462   -2.4541    0.0000 C   0  0  0  0  0  0  0  0  0
    7.3607   -2.8666    0.0000 C   0  0  0  0  0  0  0  0  0
    4.8922   -1.8270    0.0000 C   0  0  0  0  0  0  0  0  0
    5.4442   -1.2139    0.0000 O   0  0  0  0  0  0  0  0  0
    4.0852   -1.6555    0.0000 N   0  0  0  0  0  0  0  0  0
    3.8303   -0.8709    0.0000 C   0  0  0  0  0  0  0  0  0
    3.0233   -0.6993    0.0000 C   0  0  0  0  0  0  0  0  0
    2.7683    0.0853    0.0000 C   0  0  0  0  0  0  0  0  0
    3.3204    0.6984    0.0000 C   0  0  0  0  0  0  0  0  0
    3.0654    1.4830    0.0000 O   0  0  0  0  0  0  0  0  0
    3.6175    2.0961    0.0000 C   0  0  0  0  0  0  0  0  0
    3.3625    2.8807    0.0000 C   0  0  0  0  0  0  0  0  0
    3.9146    3.4938    0.0000 C   0  0  0  0  0  0  0  0  0
    4.7215    3.3223    0.0000 C   0  0  0  0  0  0  0  0  0
    4.9765    2.5377    0.0000 N   0  0  0  0  0  0  0  0  0
    4.4244    1.9246    0.0000 C   0  0  0  0  0  0  0  0  0
    4.6794    1.1399    0.0000 C   0  0  0  0  0  0  0  0  0
    4.1274    0.5268    0.0000 N   0  0  0  0  0  0  0  0  0
    4.3823   -0.2578    0.0000 C   0  0  0  0  0  0  0  0  0
  1  2  1  0  0  0  0
  2  3  4  0  0  0  0
  2 10  4  0  0  0  0
  3  4  4  0  0  0  0
  4  5  1  0  0  0  0
  4  8  4  0  0  0  0
  5  6  1  0  0  0  0
  6  7  1  0  0  0  0
  7  8  1  0  0  0  0
  7 11  1  0  0  0  0
  8  9  4  0  0  0  0
  9 10  4  0  0  0  0
 11 12  2  0  0  0  0
 11 13  1  0  0  0  0
 13 14  1  0  0  0  0
 14 15  4  0  0  0  0
 14 27  4  0  0  0  0
 15 16  4  0  0  0  0
 16 17  4  0  0  0  0
 17 18  1  0  0  0  0
 17 26  4  0  0  0  0
 18 19  1  0  0  0  0
 19 20  4  0  0  0  0
 19 24  4  0  0  0  0
 20 21  4  0  0  0  0
 21 22  4  0  0  0  0
 22 23  4  0  0  0  0
 23 24  4  0  0  0  0
 24 25  1  0  0  0  0
 26 27  4  0  0  0  0
M  END
>  <Name_Molregno>
83999

>  <5-HT2A>
5.4

>  <5-HT2C>
8.49

$$$$
84034
  Marvin  02231216192D 0   1.00000     0.00000     0

 27 30  0  0  0  0  0  0  0  0999 V2000
    8.0751   -4.1041    0.0000 I   0  0  0  0  0  0  0  0  0
    7.3607   -3.6916    0.0000 C   0  0  0  0  0  0  0  0  0
    6.6462   -4.1041    0.0000 C   0  0  0  0  0  0  0  0  0
    5.9317   -3.6916    0.0000 C   0  0  0  0  0  0  0  0  0
    5.1471   -3.9465    0.0000 C   0  0  0  0  0  0  0  0  0
    4.6622   -3.2791    0.0000 C   0  0  0  0  0  0  0  0  0
    5.1471   -2.6116    0.0000 N   0  0  0  0  0  0  0  0  0
    5.9317   -2.8666    0.0000 C   0  0  0  0  0  0  0  0  0
    6.6462   -2.4541    0.0000 C   0  0  0  0  0  0  0  0  0
    7.3607   -2.8666    0.0000 C   0  0  0  0  0  0  0  0  0
    4.8922   -1.8270    0.0000 C   0  0  0  0  0  0  0  0  0
    5.4442   -1.2139    0.0000 O   0  0  0  0  0  0  0  0  0
    4.0852   -1.6555    0.0000 N   0  0  0  0  0  0  0  0  0
    3.8303   -0.8709    0.0000 C   0  0  0  0  0  0  0  0  0
    3.0233   -0.6993    0.0000 C   0  0  0  0  0  0  0  0  0
    2.7683    0.0853    0.0000 C   0  0  0  0  0  0  0  0  0
    3.3204    0.6984    0.0000 C   0  0  0  0  0  0  0  0  0
    3.0654    1.4830    0.0000 O   0  0  0  0  0  0  0  0  0
    3.6175    2.0961    0.0000 C   0  0  0  0  0  0  0  0  0
    3.3625    2.8807    0.0000 C   0  0  0  0  0  0  0  0  0
    3.9146    3.4938    0.0000 C   0  0  0  0  0  0  0  0  0
    4.7215    3.3223    0.0000 C   0  0  0  0  0  0  0  0  0
    4.9765    2.5377    0.0000 N   0  0  0  0  0  0  0  0  0
    4.4244    1.9246    0.0000 C   0  0  0  0  0  0  0  0  0
    4.6794    1.1399    0.0000 C   0  0  0  0  0  0  0  0  0
    4.1274    0.5268    0.0000 N   0  0  0  0  0  0  0  0  0
    4.3823   -0.2578    0.0000 C   0  0  0  0  0  0  0  0  0
  1  2  1  0  0  0  0
  2  3  4  0  0  0  0
  2 10  4  0  0  0  0
  3  4  4  0  0  0  0
  4  5  1  0  0  0  0
  4  8  4  0  0  0  0
  5  6  1  0  0  0  0
  6  7  1  0  0  0  0
  7  8  1  0  0  0  0
  7 11  1  0  0  0  0
  8  9  4  0  0  0  0
  9 10  4  0  0  0  0
 11 12  2  0  0  0  0
 11 13  1  0  0  0  0
 13 14  1  0  0  0  0
 14 15  4  0  0  0  0
 14 27  4  0  0  0  0
 15 16  4  0  0  0  0
 16 17  4  0  0  0  0
 17 18  1  0  0  0  0
 17 26  4  0  0  0  0
 18 19  1  0  0  0  0
 19 20  4  0  0  0  0
 19 24  4  0  0  0  0
 20 21  4  0  0  0  0
 21 22  4  0  0  0  0
 22 23  4  0  0  0  0
 23 24  4  0  0  0  0
 24 25  1  0  0  0  0
 26 27  4  0  0  0  0
M  END
>  <Name_Molregno>
84034

>  <5-HT2A>
5.8

>  <5-HT2C>
8.49

$$$$
84035
  Marvin  02231216192D 0   1.00000     0.00000     0

 27 30  0  0  0  0  0  0  0  0999 V2000
    8.0751   -4.1041    0.0000 Cl  0  0  0  0  0  0  0  0  0
    7.3607   -3.6916    0.0000 C   0  0  0  0  0  0  0  0  0
    6.6462   -4.1041    0.0000 C   0  0  0  0  0  0  0  0  0
    5.9317   -3.6916    0.0000 C   0  0  0  0  0  0  0  0  0
    5.1471   -3.9465    0.0000 C   0  0  0  0  0  0  0  0  0
    4.6622   -3.2791    0.0000 C   0  0  0  0  0  0  0  0  0
    5.1471   -2.6116    0.0000 N   0  0  0  0  0  0  0  0  0
    5.9317   -2.8666    0.0000 C   0  0  0  0  0  0  0  0  0
    6.6462   -2.4541    0.0000 C   0  0  0  0  0  0  0  0  0
    7.3607   -2.8666    0.0000 C   0  0  0  0  0  0  0  0  0
    4.8922   -1.8270    0.0000 C   0  0  0  0  0  0  0  0  0
    5.4442   -1.2139    0.0000 O   0  0  0  0  0  0  0  0  0
    4.0852   -1.6555    0.0000 N   0  0  0  0  0  0  0  0  0
    3.8303   -0.8709    0.0000 C   0  0  0  0  0  0  0  0  0
    3.0233   -0.6993    0.0000 C   0  0  0  0  0  0  0  0  0
    2.7683    0.0853    0.0000 C   0  0  0  0  0  0  0  0  0
    3.3204    0.6984    0.0000 C   0  0  0  0  0  0  0  0  0
    3.0654    1.4830    0.0000 O   0  0  0  0  0  0  0  0  0
    3.6175    2.0961    0.0000 C   0  0  0  0  0  0  0  0  0
    3.3625    2.8807    0.0000 C   0  0  0  0  0  0  0  0  0
    3.9146    3.4938    0.0000 C   0  0  0  0  0  0  0  0  0
    4.7215    3.3223    0.0000 C   0  0  0  0  0  0  0  0  0
    4.9765    2.5377    0.0000 N   0  0  0  0  0  0  0  0  0
    4.4244    1.9246    0.0000 C   0  0  0  0  0  0  0  0  0
    4.6794    1.1399    0.0000 C   0  0  0  0  0  0  0  0  0
    4.1274    0.5268    0.0000 N   0  0  0  0  0  0  0  0  0
    4.3823   -0.2578    0.0000 C   0  0  0  0  0  0  0  0  0
  1  2  1  0  0  0  0
  2  3  4  0  0  0  0
  2 10  4  0  0  0  0
  3  4  4  0  0  0  0
  4  5  1  0  0  0  0
  4  8  4  0  0  0  0
  5  6  1  0  0  0  0
  6  7  1  0  0  0  0
  7  8  1  0  0  0  0
  7 11  1  0  0  0  0
  8  9  4  0  0  0  0
  9 10  4  0  0  0  0
 11 12  2  0  0  0  0
 11 13  1  0  0  0  0
 13 14  1  0  0  0  0
 14 15  4  0  0  0  0
 14 27  4  0  0  0  0
 15 16  4  0  0  0  0
 16 17  4  0  0  0  0
 17 18  1  0  0  0  0
 17 26  4  0  0  0  0
 18 19  1  0  0  0  0
 19 20  4  0  0  0  0
 19 24  4  0  0  0  0
 20 21  4  0  0  0  0
 21 22  4  0  0  0  0
 22 23  4  0  0  0  0
 23 24  4  0  0  0  0
 24 25  1  0  0  0  0
 26 27  4  0  0  0  0
M  END
>  <Name_Molregno>
84035

>  <5-HT2A>
5

>  <5-HT2C>
8.2

$$$$
84202
  Marvin  02231216192D 0   1.00000     0.00000     0

 28 31  0  0  0  0  0  0  0  0999 V2000
    7.8631   -3.6755    0.0000 Cl  0  0  0  0  0  0  0  0  0
    7.1486   -3.2630    0.0000 C   0  0  0  0  0  0  0  0  0
    6.4341   -3.6755    0.0000 C   0  0  0  0  0  0  0  0  0
    5.7197   -3.2630    0.0000 C   0  0  0  0  0  0  0  0  0
    4.9350   -3.5180    0.0000 C   0  0  0  0  0  0  0  0  0
    4.4501   -2.8505    0.0000 C   0  0  0  0  0  0  0  0  0
    4.9350   -2.1831    0.0000 N   0  0  0  0  0  0  0  0  0
    5.7197   -2.4380    0.0000 C   0  0  0  0  0  0  0  0  0
    6.4341   -2.0255    0.0000 C   0  0  0  0  0  0  0  0  0
    7.1486   -2.4380    0.0000 C   0  0  0  0  0  0  0  0  0
    7.8631   -2.0255    0.0000 Cl  0  0  0  0  0  0  0  0  0
    4.6801   -1.3985    0.0000 C   0  0  0  0  0  0  0  0  0
    5.2321   -0.7854    0.0000 O   0  0  0  0  0  0  0  0  0
    3.8731   -1.2269    0.0000 N   0  0  0  0  0  0  0  0  0
    3.6182   -0.4423    0.0000 C   0  0  0  0  0  0  0  0  0
    2.8112   -0.2708    0.0000 C   0  0  0  0  0  0  0  0  0
    2.5563    0.5138    0.0000 C   0  0  0  0  0  0  0  0  0
    3.1083    1.1269    0.0000 C   0  0  0  0  0  0  0  0  0
    2.8534    1.9115    0.0000 O   0  0  0  0  0  0  0  0  0
    3.4054    2.5246    0.0000 C   0  0  0  0  0  0  0  0  0
    3.1505    3.3093    0.0000 C   0  0  0  0  0  0  0  0  0
    3.7025    3.9224    0.0000 C   0  0  0  0  0  0  0  0  0
    4.5095    3.7508    0.0000 C   0  0  0  0  0  0  0  0  0
    4.7644    2.9662    0.0000 N   0  0  0  0  0  0  0  0  0
    4.2124    2.3531    0.0000 C   0  0  0  0  0  0  0  0  0
    4.4673    1.5685    0.0000 C   0  0  0  0  0  0  0  0  0
    3.9153    0.9554    0.0000 N   0  0  0  0  0  0  0  0  0
    4.1702    0.1708    0.0000 C   0  0  0  0  0  0  0  0  0
  1  2  1  0  0  0  0
  2  3  4  0  0  0  0
  2 10  4  0  0  0  0
  3  4  4  0  0  0  0
  4  5  1  0  0  0  0
  4  8  4  0  0  0  0
  5  6  1  0  0  0  0
  6  7  1  0  0  0  0
  7  8  1  0  0  0  0
  7 12  1  0  0  0  0
  8  9  4  0  0  0  0
  9 10  4  0  0  0  0
 10 11  1  0  0  0  0
 12 13  2  0  0  0  0
 12 14  1  0  0  0  0
 14 15  1  0  0  0  0
 15 16  4  0  0  0  0
 15 28  4  0  0  0  0
 16 17  4  0  0  0  0
 17 18  4  0  0  0  0
 18 19  1  0  0  0  0
 18 27  4  0  0  0  0
 19 20  1  0  0  0  0
 20 21  4  0  0  0  0
 20 25  4  0  0  0  0
 21 22  4  0  0  0  0
 22 23  4  0  0  0  0
 23 24  4  0  0  0  0
 24 25  4  0  0  0  0
 25 26  1  0  0  0  0
 27 28  4  0  0  0  0
M  END
>  <Name_Molregno>
84202

>  <5-HT2A>
6.6

>  <5-HT2C>
8.7

$$$$
88815
  Marvin  02231216192D 0   1.00000     0.00000     0

 14 15  0  0  1  0  0  0  0  0999 V2000
   -3.2072   -0.1654    0.0000 S   0  0  0  0  0  0  0  0  0
   -2.4226   -0.4204    0.0000 C   0  0  0  0  0  0  0  0  0
   -1.7081   -0.0079    0.0000 C   0  0  0  0  0  0  0  0  0
   -0.9937   -0.4204    0.0000 C   0  0  0  0  0  0  0  0  0
   -0.2792   -0.0079    0.0000 N   0  0  0  0  0  0  0  0  0
    0.4353   -0.4204    0.0000 C   0  0  0  0  0  0  0  0  0
    1.1498   -0.0079    0.0000 C   0  0  0  0  0  0  0  0  0
    1.8642   -0.4204    0.0000 C   0  0  0  0  0  0  0  0  0
   -0.9937   -1.2454    0.0000 C   0  0  0  0  0  0  0  0  0
   -1.7081   -1.6579    0.0000 C   0  0  0  0  0  0  0  0  0
   -2.4226   -1.2454    0.0000 C   0  0  0  0  0  0  0  0  0
   -3.2072   -1.5003    0.0000 N   0  0  0  0  0  0  0  0  0
   -3.6921   -0.8329    0.0000 C   0  0  0  0  0  0  0  0  0
   -4.5171   -0.8329    0.0000 N   0  0  0  0  0  0  0  0  0
  1  2  4  0  0  0  0
  1 13  4  0  0  0  0
  2  3  1  0  0  0  0
  2 11  4  0  0  0  0
  3  4  1  0  0  0  0
  4  5  1  0  0  0  0
  4  9  1  0  0  0  0
  5  6  1  0  0  0  0
  6  7  1  0  0  0  0
  7  8  1  0  0  0  0
  9 10  1  0  0  0  0
 10 11  1  0  0  0  0
 11 12  4  0  0  0  0
 12 13  4  0  0  0  0
 13 14  1  0  0  0  0
M  END
>  <Name_Molregno>
88815

>  <5-HT1A>
5.67

>  <5-HT1B>
5.26

>  <5-HT1D>
5.39

>  <5-HT1E>
5

>  <5-HT2A>
5

>  <5-HT2C>
5

>  <5-HT3>
5

>  <5-HT5>
5

>  <5-HT6>
5

>  <5-HT7>
5.93

>  <Alpha-1A>
5

>  <Alpha-1B>
5

>  <Alpha-2A>
6.44

>  <Alpha-2B>
6.68

>  <Alpha-2C>
6.14

>  <Beta-1>
5

>  <Beta-2>
5

>  <DOPAMINE D1>
5

>  <DOPAMINE D2>
6.55

>  <DOPAMINE D3>
8.51

>  <DOPAMINE D4>
7.4

>  <DOPAMINE D5>
5

>  <Dopamine transporter>
5

>  <HISTAMINE H1>
5

>  <HISTAMINE H2>
5.57

>  <HISTAMINE H4>
5

>  <Muscarinic acetylcholine receptor M1>
5

>  <Muscarinic acetylcholine receptor M2>
5

>  <Muscarinic acetylcholine receptor M3>
5

>  <Muscarinic acetylcholine receptor M4>
5

>  <Muscarinic acetylcholine receptor M5>
5

>  <Norepinephrine transporter>
5

>  <Serotonin transporter>
5

$$$$
89669
  Marvin  02231216192D 0   1.00000     0.00000     0

 14 14  0  0  0  0  0  0  0  0999 V2000
    3.8401    1.0075    0.0000 Br  0  0  0  0  0  0  0  0  0
    3.1256    0.5950    0.0000 C   0  0  0  0  0  0  0  0  0
    3.1256   -0.2300    0.0000 C   0  0  0  0  0  0  0  0  0
    2.4111   -0.6425    0.0000 C   0  0  0  0  0  0  0  0  0
    2.4111   -1.4675    0.0000 O   0  0  0  0  0  0  0  0  0
    1.6967   -1.8800    0.0000 C   0  0  0  0  0  0  0  0  0
    1.6967   -0.2300    0.0000 C   0  0  0  0  0  0  0  0  0
    1.6967    0.5950    0.0000 C   0  0  0  0  0  0  0  0  0
    2.4111    1.0075    0.0000 C   0  0  0  0  0  0  0  0  0
    2.4111    1.8325    0.0000 O   0  0  0  0  0  0  0  0  0
    1.6967    2.2450    0.0000 C   0  0  0  0  0  0  0  0  0
    0.9822   -0.6425    0.0000 C   0  0  0  0  0  0  0  0  0
    0.2677   -0.2300    0.0000 C   0  0  0  0  0  0  0  0  0
   -0.4467   -0.6425    0.0000 N   0  0  0  0  0  0  0  0  0
  1  2  1  0  0  0  0
  2  3  4  0  0  0  0
  2  9  4  0  0  0  0
  3  4  4  0  0  0  0
  4  5  1  0  0  0  0
  4  7  4  0  0  0  0
  5  6  1  0  0  0  0
  7  8  4  0  0  0  0
  7 12  1  0  0  0  0
  8  9  4  0  0  0  0
  9 10  1  0  0  0  0
 10 11  1  0  0  0  0
 12 13  1  0  0  0  0
 13 14  1  0  0  0  0
M  END
>  <Name_Molregno>
89669

>  <5-HT2A>
9.18

$$$$
95917
  Marvin  02231216192D 0   1.00000     0.00000     0

 34 38  0  0  0  0  0  0  0  0999 V2000
   -0.1357    0.0002    0.0000 Cl  0  0  0  0  0  0  0  0  0
   -0.1357   -0.8248    0.0000 C   0  0  0  0  0  0  0  0  0
    0.5788   -1.2373    0.0000 C   0  0  0  0  0  0  0  0  0
    1.2932   -0.8248    0.0000 N   0  0  0  0  0  0  0  0  0
    1.2932    0.0002    0.0000 C   0  0  0  0  0  0  0  0  0
    2.0077    0.4127    0.0000 C   0  0  0  0  0  0  0  0  0
    2.7222    0.0002    0.0000 N   0  0  0  0  0  0  0  0  0
    2.7222   -0.8248    0.0000 C   0  0  0  0  0  0  0  0  0
    2.0077   -1.2373    0.0000 C   0  0  0  0  0  0  0  0  0
    3.4366    0.4127    0.0000 C   0  0  0  0  0  0  0  0  0
    4.1511    0.0002    0.0000 C   0  0  0  0  0  0  0  0  0
    4.8656    0.4127    0.0000 C   0  0  0  0  0  0  0  0  0
    5.5800    0.0002    0.0000 C   0  0  0  0  0  0  0  0  0
    6.2945    0.4127    0.0000 N   0  0  0  0  0  0  0  0  0
    7.0090    0.0002    0.0000 C   0  0  0  0  0  0  0  0  0
    7.0090   -0.8248    0.0000 O   0  0  0  0  0  0  0  0  0
    7.7235    0.4127    0.0000 C   0  0  0  0  0  0  0  0  0
    8.4379    0.0002    0.0000 C   0  0  0  0  0  0  0  0  0
    9.1524    0.4127    0.0000 C   0  0  0  0  0  0  0  0  0
    9.9370    0.1578    0.0000 C   0  0  0  0  0  0  0  0  0
   10.4219    0.8252    0.0000 C   0  0  0  0  0  0  0  0  0
    9.9370    1.4927    0.0000 C   0  0  0  0  0  0  0  0  0
    9.1524    1.2377    0.0000 C   0  0  0  0  0  0  0  0  0
    8.4379    1.6502    0.0000 C   0  0  0  0  0  0  0  0  0
    7.7235    1.2377    0.0000 C   0  0  0  0  0  0  0  0  0
   10.2726    2.2464    0.0000 C   0  0  0  0  0  0  0  0  0
   11.0931    2.3326    0.0000 C   0  0  0  0  0  0  0  0  0
   11.5780    1.6652    0.0000 C   0  0  0  0  0  0  0  0  0
   11.2424    0.9115    0.0000 C   0  0  0  0  0  0  0  0  0
    0.5788   -2.0623    0.0000 C   0  0  0  0  0  0  0  0  0
   -0.1357   -2.4748    0.0000 C   0  0  0  0  0  0  0  0  0
   -0.8502   -2.0623    0.0000 C   0  0  0  0  0  0  0  0  0
   -0.8502   -1.2373    0.0000 C   0  0  0  0  0  0  0  0  0
   -1.5647   -0.8248    0.0000 Cl  0  0  0  0  0  0  0  0  0
  1  2  1  0  0  0  0
  2  3  4  0  0  0  0
  2 33  4  0  0  0  0
  3  4  1  0  0  0  0
  3 30  4  0  0  0  0
  4  5  1  0  0  0  0
  4  9  1  0  0  0  0
  5  6  1  0  0  0  0
  6  7  1  0  0  0  0
  7  8  1  0  0  0  0
  7 10  1  0  0  0  0
  8  9  1  0  0  0  0
 10 11  1  0  0  0  0
 11 12  1  0  0  0  0
 12 13  1  0  0  0  0
 13 14  1  0  0  0  0
 14 15  1  0  0  0  0
 15 16  2  0  0  0  0
 15 17  1  0  0  0  0
 17 18  4  0  0  0  0
 17 25  4  0  0  0  0
 18 19  4  0  0  0  0
 19 20  1  0  0  0  0
 19 23  4  0  0  0  0
 20 21  1  0  0  0  0
 21 22  4  0  0  0  0
 21 29  4  0  0  0  0
 22 23  1  0  0  0  0
 22 26  4  0  0  0  0
 23 24  4  0  0  0  0
 24 25  4  0  0  0  0
 26 27  4  0  0  0  0
 27 28  4  0  0  0  0
 28 29  4  0  0  0  0
 30 31  4  0  0  0  0
 31 32  4  0  0  0  0
 32 33  4  0  0  0  0
 33 34  1  0  0  0  0
M  END
>  <Name_Molregno>
95917

>  <5-HT1A>
5.69

>  <5-HT2A>
6.17

>  <5-HT2C>
6.39

>  <DOPAMINE D2>
6.75

>  <DOPAMINE D3>
8.69

>  <DOPAMINE D4>
5.3

$$$$
110260
  Marvin  02231216192D 0   1.00000     0.00000     0

 33 36  0  0  0  0  0  0  0  0999 V2000
   -9.9587   -0.0242    0.0000 Cl  0  0  0  0  0  0  0  0  0
   -9.9587   -0.8492    0.0000 C   0  0  0  0  0  0  0  0  0
   -9.2442   -1.2617    0.0000 C   0  0  0  0  0  0  0  0  0
   -8.5297   -0.8492    0.0000 N   0  0  0  0  0  0  0  0  0
   -8.5297   -0.0242    0.0000 C   0  0  0  0  0  0  0  0  0
   -7.8152    0.3883    0.0000 C   0  0  0  0  0  0  0  0  0
   -7.1008   -0.0242    0.0000 N   0  0  0  0  0  0  0  0  0
   -7.1008   -0.8492    0.0000 C   0  0  0  0  0  0  0  0  0
   -7.8152   -1.2617    0.0000 C   0  0  0  0  0  0  0  0  0
   -6.3863    0.3883    0.0000 C   0  0  0  0  0  0  0  0  0
   -5.6718   -0.0242    0.0000 C   0  0  0  0  0  0  0  0  0
   -4.9574    0.3883    0.0000 C   0  0  0  0  0  0  0  0  0
   -4.2429   -0.0242    0.0000 C   0  0  0  0  0  0  0  0  0
   -3.5284    0.3883    0.0000 N   0  0  0  0  0  0  0  0  0
   -2.8139   -0.0242    0.0000 C   0  0  0  0  0  0  0  0  0
   -2.8139   -0.8492    0.0000 O   0  0  0  0  0  0  0  0  0
   -2.0995    0.3883    0.0000 C   0  0  0  0  0  0  0  0  0
   -2.0995    1.2133    0.0000 C   0  0  0  0  0  0  0  0  0
   -1.3850    1.6258    0.0000 C   0  0  0  0  0  0  0  0  0
   -0.6705    1.2133    0.0000 C   0  0  0  0  0  0  0  0  0
   -0.6705    0.3883    0.0000 C   0  0  0  0  0  0  0  0  0
   -1.3850   -0.0242    0.0000 C   0  0  0  0  0  0  0  0  0
    0.0439    1.6258    0.0000 C   0  0  0  0  0  0  0  0  0
    0.0439    2.4508    0.0000 N   0  0  0  0  0  0  0  0  0
    0.7584    2.8633    0.0000 C   0  0  0  0  0  0  0  0  0
    1.4729    2.4508    0.0000 C   0  0  0  0  0  0  0  0  0
    1.4729    1.6258    0.0000 C   0  0  0  0  0  0  0  0  0
    0.7584    1.2133    0.0000 C   0  0  0  0  0  0  0  0  0
   -9.2442   -2.0867    0.0000 C   0  0  0  0  0  0  0  0  0
   -9.9587   -2.4992    0.0000 C   0  0  0  0  0  0  0  0  0
  -10.6731   -2.0867    0.0000 C   0  0  0  0  0  0  0  0  0
  -10.6731   -1.2617    0.0000 C   0  0  0  0  0  0  0  0  0
  -11.3876   -0.8492    0.0000 Cl  0  0  0  0  0  0  0  0  0
  1  2  1  0  0  0  0
  2  3  4  0  0  0  0
  2 32  4  0  0  0  0
  3  4  1  0  0  0  0
  3 29  4  0  0  0  0
  4  5  1  0  0  0  0
  4  9  1  0  0  0  0
  5  6  1  0  0  0  0
  6  7  1  0  0  0  0
  7  8  1  0  0  0  0
  7 10  1  0  0  0  0
  8  9  1  0  0  0  0
 10 11  1  0  0  0  0
 11 12  1  0  0  0  0
 12 13  1  0  0  0  0
 13 14  1  0  0  0  0
 14 15  1  0  0  0  0
 15 16  2  0  0  0  0
 15 17  1  0  0  0  0
 17 18  4  0  0  0  0
 17 22  4  0  0  0  0
 18 19  4  0  0  0  0
 19 20  4  0  0  0  0
 20 21  4  0  0  0  0
 20 23  1  0  0  0  0
 21 22  4  0  0  0  0
 23 24  4  0  0  0  0
 23 28  4  0  0  0  0
 24 25  4  0  0  0  0
 25 26  4  0  0  0  0
 26 27  4  0  0  0  0
 27 28  4  0  0  0  0
 29 30  4  0  0  0  0
 30 31  4  0  0  0  0
 31 32  4  0  0  0  0
 32 33  1  0  0  0  0
M  END
>  <Name_Molregno>
110260

>  <5-HT1A>
7.63

>  <5-HT2A>
7.64

>  <5-HT2C>
7.28

>  <DOPAMINE D2>
7.51

>  <DOPAMINE D3>
9.16

$$$$
110358
  Marvin  02231216192D 0   1.00000     0.00000     0

 34 38  0  0  0  0  0  0  0  0999 V2000
    3.1957   -3.8270    0.0000 Cl  0  0  0  0  0  0  0  0  0
    4.0027   -3.6555    0.0000 C   0  0  0  0  0  0  0  0  0
    4.2577   -2.8709    0.0000 C   0  0  0  0  0  0  0  0  0
    3.7056   -2.2578    0.0000 N   0  0  0  0  0  0  0  0  0
    2.8986   -2.4293    0.0000 C   0  0  0  0  0  0  0  0  0
    2.3466   -1.8162    0.0000 C   0  0  0  0  0  0  0  0  0
    2.6016   -1.0316    0.0000 N   0  0  0  0  0  0  0  0  0
    3.4085   -0.8601    0.0000 C   0  0  0  0  0  0  0  0  0
    3.9606   -1.4732    0.0000 C   0  0  0  0  0  0  0  0  0
    2.0495   -0.4185    0.0000 C   0  0  0  0  0  0  0  0  0
    2.3045    0.3661    0.0000 C   0  0  0  0  0  0  0  0  0
    3.1114    0.5377    0.0000 C   0  0  0  0  0  0  0  0  0
    3.3664    1.3223    0.0000 C   0  0  0  0  0  0  0  0  0
    4.1733    1.4938    0.0000 N   0  0  0  0  0  0  0  0  0
    4.4283    2.2784    0.0000 C   0  0  0  0  0  0  0  0  0
    3.8763    2.8915    0.0000 O   0  0  0  0  0  0  0  0  0
    5.2353    2.4500    0.0000 C   0  0  0  0  0  0  0  0  0
    5.7873    1.8369    0.0000 C   0  0  0  0  0  0  0  0  0
    6.5943    2.0084    0.0000 C   0  0  0  0  0  0  0  0  0
    7.2617    1.5235    0.0000 C   0  0  0  0  0  0  0  0  0
    7.9291    2.0084    0.0000 C   0  0  0  0  0  0  0  0  0
    7.6742    2.7930    0.0000 C   0  0  0  0  0  0  0  0  0
    6.8492    2.7930    0.0000 C   0  0  0  0  0  0  0  0  0
    6.2972    3.4061    0.0000 C   0  0  0  0  0  0  0  0  0
    5.4902    3.2346    0.0000 C   0  0  0  0  0  0  0  0  0
    8.2262    3.4061    0.0000 C   0  0  0  0  0  0  0  0  0
    9.0332    3.2346    0.0000 C   0  0  0  0  0  0  0  0  0
    9.2881    2.4500    0.0000 C   0  0  0  0  0  0  0  0  0
    8.7361    1.8369    0.0000 C   0  0  0  0  0  0  0  0  0
    5.0646   -2.6993    0.0000 C   0  0  0  0  0  0  0  0  0
    5.6167   -3.3124    0.0000 C   0  0  0  0  0  0  0  0  0
    5.3617   -4.0971    0.0000 C   0  0  0  0  0  0  0  0  0
    4.5547   -4.2686    0.0000 C   0  0  0  0  0  0  0  0  0
    4.2998   -5.0532    0.0000 Cl  0  0  0  0  0  0  0  0  0
  1  2  1  0  0  0  0
  2  3  4  0  0  0  0
  2 33  4  0  0  0  0
  3  4  1  0  0  0  0
  3 30  4  0  0  0  0
  4  5  1  0  0  0  0
  4  9  1  0  0  0  0
  5  6  1  0  0  0  0
  6  7  1  0  0  0  0
  7  8  1  0  0  0  0
  7 10  1  0  0  0  0
  8  9  1  0  0  0  0
 10 11  1  0  0  0  0
 11 12  2  0  0  0  0
 12 13  1  0  0  0  0
 13 14  1  0  0  0  0
 14 15  1  0  0  0  0
 15 16  2  0  0  0  0
 15 17  1  0  0  0  0
 17 18  4  0  0  0  0
 17 25  4  0  0  0  0
 18 19  4  0  0  0  0
 19 20  1  0  0  0  0
 19 23  4  0  0  0  0
 20 21  1  0  0  0  0
 21 22  4  0  0  0  0
 21 29  4  0  0  0  0
 22 23  1  0  0  0  0
 22 26  4  0  0  0  0
 23 24  4  0  0  0  0
 24 25  4  0  0  0  0
 26 27  4  0  0  0  0
 27 28  4  0  0  0  0
 28 29  4  0  0  0  0
 30 31  4  0  0  0  0
 31 32  4  0  0  0  0
 32 33  4  0  0  0  0
 33 34  1  0  0  0  0
M  END
>  <Name_Molregno>
110358

>  <5-HT1A>
6.03

>  <5-HT2A>
6.48

>  <5-HT2C>
6.88

>  <DOPAMINE D2>
6.33

>  <DOPAMINE D3>
8.69

>  <DOPAMINE D4>
5.99

$$$$
114672
  Marvin  02231216192D 0   1.00000     0.00000     0

 30 33  0  0  1  0  0  0  0  0999 V2000
    4.4477    6.3874    0.0000 F   0  0  0  0  0  0  0  0  0
    4.4477    5.5624    0.0000 C   0  0  0  0  0  0  0  0  0
    5.1622    5.1499    0.0000 C   0  0  0  0  0  0  0  0  0
    5.1622    4.3249    0.0000 C   0  0  0  0  0  0  0  0  0
    4.4477    3.9124    0.0000 C   0  0  0  0  0  0  0  0  0
    3.7332    4.3249    0.0000 C   0  0  0  0  0  0  0  0  0
    3.7332    5.1499    0.0000 C   0  0  0  0  0  0  0  0  0
    4.4477    3.0874    0.0000 C   0  0  0  0  0  0  0  0  0
    3.7332    2.6749    0.0000 O   0  0  0  0  0  0  0  0  0
    5.1622    2.6749    0.0000 C   0  0  0  0  0  0  0  0  0
    5.1622    1.8499    0.0000 C   0  0  0  0  0  0  0  0  0
    5.8767    1.4374    0.0000 C   0  0  0  0  0  0  0  0  0
    5.8767    0.6124    0.0000 N   0  0  0  0  0  0  0  0  0
    6.5911    0.1999    0.0000 C   0  0  0  0  0  0  0  0  0
    6.5911   -0.6251    0.0000 C   0  0  0  0  0  0  0  0  0
    5.8767   -1.0376    0.0000 N   0  0  0  0  0  0  0  0  0
    5.1622   -0.6251    0.0000 C   0  0  0  0  0  0  0  0  0
    5.1622    0.1999    0.0000 C   0  0  0  0  0  0  0  0  0
    5.8767   -1.8626    0.0000 C   0  0  0  0  0  0  0  0  0
    6.5911   -2.2751    0.0000 C   0  0  0  0  0  0  0  0  0
    6.5911   -3.1001    0.0000 C   0  0  0  0  0  0  0  0  0
    7.3056   -3.5126    0.0000 C   0  0  0  0  0  0  0  0  0
    7.3056   -4.3376    0.0000 O   0  0  0  0  0  0  0  0  0
    8.0201   -3.1001    0.0000 C   0  0  0  0  0  0  0  0  0
    8.0201   -2.2751    0.0000 C   0  0  0  0  0  0  0  0  0
    7.3056   -1.8626    0.0000 C   0  0  0  0  0  0  0  0  0
    8.7345   -1.8626    0.0000 C   0  0  0  0  0  0  0  0  0
    9.4490   -2.2751    0.0000 C   0  0  0  0  0  0  0  0  0
    9.4490   -3.1001    0.0000 C   0  0  0  0  0  0  0  0  0
    8.7345   -3.5126    0.0000 C   0  0  0  0  0  0  0  0  0
  1  2  1  0  0  0  0
  2  3  4  0  0  0  0
  2  7  4  0  0  0  0
  3  4  4  0  0  0  0
  4  5  4  0  0  0  0
  5  6  4  0  0  0  0
  5  8  1  0  0  0  0
  6  7  4  0  0  0  0
  8  9  2  0  0  0  0
  8 10  1  0  0  0  0
 10 11  1  0  0  0  0
 11 12  1  0  0  0  0
 12 13  1  0  0  0  0
 13 14  1  0  0  0  0
 13 18  1  0  0  0  0
 14 15  1  0  0  0  0
 15 16  1  0  0  0  0
 16 17  1  0  0  0  0
 16 19  1  0  0  0  0
 17 18  1  0  0  0  0
 19 20  1  0  0  0  0
 20 21  1  0  0  0  0
 20 26  1  0  0  0  0
 21 22  1  0  0  0  0
 22 23  2  0  0  0  0
 22 24  1  0  0  0  0
 24 25  4  0  0  0  0
 24 30  4  0  0  0  0
 25 26  1  0  0  0  0
 25 27  4  0  0  0  0
 27 28  4  0  0  0  0
 28 29  4  0  0  0  0
 29 30  4  0  0  0  0
M  END
>  <Name_Molregno>
114672

>  <5-HT2A>
6.94

$$$$
118032
  Marvin  02231216192D 0   1.00000     0.00000     0

 17 19  0  0  0  0  0  0  0  0999 V2000
    1.9760   -0.5672    0.0000 N   0  0  0  0  0  0  0  0  0
    1.2616   -0.1547    0.0000 C   0  0  0  0  0  0  0  0  0
    1.2616    0.6703    0.0000 C   0  0  0  0  0  0  0  0  0
    1.9760    1.0828    0.0000 C   0  0  0  0  0  0  0  0  0
    1.9760    1.9078    0.0000 C   0  0  0  0  0  0  0  0  0
    1.2616    2.3203    0.0000 C   0  0  0  0  0  0  0  0  0
    0.5471    1.9078    0.0000 C   0  0  0  0  0  0  0  0  0
    0.5471    1.0828    0.0000 C   0  0  0  0  0  0  0  0  0
   -0.1674    0.6703    0.0000 C   0  0  0  0  0  0  0  0  0
   -0.8818    1.0828    0.0000 C   0  0  0  0  0  0  0  0  0
   -0.8818    1.9078    0.0000 C   0  0  0  0  0  0  0  0  0
   -0.1674    2.3203    0.0000 C   0  0  0  0  0  0  0  0  0
    2.6905    2.3203    0.0000 C   0  0  0  0  0  0  0  0  0
    3.4050    1.9078    0.0000 C   0  0  0  0  0  0  0  0  0
    3.4050    1.0828    0.0000 C   0  0  0  0  0  0  0  0  0
    2.6905    0.6703    0.0000 C   0  0  0  0  0  0  0  0  0
    1.9760   -1.3922    0.0000 C   0  0  0  0  0  0  0  0  0
  1  2  1  0  0  0  0
  1 17  1  0  0  0  0
  2  3  1  0  0  0  0
  3  4  1  0  0  0  0
  3  8  1  0  0  0  0
  4  5  4  0  0  0  0
  4 16  4  0  0  0  0
  5  6  1  0  0  0  0
  5 13  4  0  0  0  0
  6  7  1  0  0  0  0
  7  8  4  0  0  0  0
  7 12  4  0  0  0  0
  8  9  4  0  0  0  0
  9 10  4  0  0  0  0
 10 11  4  0  0  0  0
 11 12  4  0  0  0  0
 13 14  4  0  0  0  0
 14 15  4  0  0  0  0
 15 16  4  0  0  0  0
M  END
>  <Name_Molregno>
118032

>  <5-HT2A>
7.28

>  <HISTAMINE H1>
6.72

$$$$
120674
  Marvin  02231216192D 0   1.00000     0.00000     0

 27 29  0  0  1  0  0  0  0  0999 V2000
    4.4208    6.3587    0.0000 F   0  0  0  0  0  0  0  0  0
    4.4208    5.5337    0.0000 C   0  0  0  0  0  0  0  0  0
    5.1353    5.1212    0.0000 C   0  0  0  0  0  0  0  0  0
    5.1353    4.2962    0.0000 C   0  0  0  0  0  0  0  0  0
    4.4208    3.8837    0.0000 C   0  0  0  0  0  0  0  0  0
    3.7063    4.2962    0.0000 C   0  0  0  0  0  0  0  0  0
    3.7063    5.1212    0.0000 C   0  0  0  0  0  0  0  0  0
    4.4208    3.0587    0.0000 C   0  0  0  0  0  0  0  0  0
    5.1353    2.6462    0.0000 C   0  0  0  0  0  0  0  0  0
    5.1353    1.8212    0.0000 N   0  0  0  0  0  0  0  0  0
    5.8497    1.4087    0.0000 C   0  0  0  0  0  0  0  0  0
    5.8497    0.5837    0.0000 C   0  0  0  0  0  0  0  0  0
    5.1353    0.1712    0.0000 C   0  0  0  0  0  0  0  0  0
    4.4208    0.5837    0.0000 C   0  0  0  0  0  0  0  0  0
    4.4208    1.4087    0.0000 C   0  0  0  0  0  0  0  0  0
    5.1353   -0.6538    0.0000 C   0  0  0  0  0  0  0  0  0
    4.4208   -1.0663    0.0000 O   0  0  0  0  0  0  0  0  0
    5.8497   -1.0663    0.0000 C   0  0  0  0  0  0  0  0  0
    6.5642   -0.6538    0.0000 C   0  0  0  0  0  0  0  0  0
    7.2787   -1.0663    0.0000 C   0  0  0  0  0  0  0  0  0
    7.2787   -1.8913    0.0000 C   0  0  0  0  0  0  0  0  0
    6.5642   -2.3038    0.0000 C   0  0  0  0  0  0  0  0  0
    6.5642   -3.1288    0.0000 O   0  0  0  0  0  0  0  0  0
    7.2787   -3.5413    0.0000 C   0  0  0  0  0  0  0  0  0
    5.8497   -1.8913    0.0000 C   0  0  0  0  0  0  0  0  0
    5.1353   -2.3038    0.0000 O   0  0  0  0  0  0  0  0  0
    5.1353   -3.1288    0.0000 C   0  0  0  0  0  0  0  0  0
  1  2  1  0  0  0  0
  2  3  4  0  0  0  0
  2  7  4  0  0  0  0
  3  4  4  0  0  0  0
  4  5  4  0  0  0  0
  5  6  4  0  0  0  0
  5  8  1  0  0  0  0
  6  7  4  0  0  0  0
  8  9  1  0  0  0  0
  9 10  1  0  0  0  0
 10 11  1  0  0  0  0
 10 15  1  0  0  0  0
 11 12  1  0  0  0  0
 12 13  1  0  0  0  0
 13 14  1  0  0  0  0
 13 16  1  0  0  0  0
 14 15  1  0  0  0  0
 16 17  1  0  0  0  0
 16 18  1  0  0  0  0
 18 19  4  0  0  0  0
 18 25  4  0  0  0  0
 19 20  4  0  0  0  0
 20 21  4  0  0  0  0
 21 22  4  0  0  0  0
 22 23  1  0  0  0  0
 22 25  4  0  0  0  0
 23 24  1  0  0  0  0
 25 26  1  0  0  0  0
 26 27  1  0  0  0  0
M  END
>  <Name_Molregno>
120674

>  <5-HT1A>
5

>  <5-HT1E>
5

>  <5-HT2A>
9.16

>  <5-HT2C>
7.37

>  <5-HT3>
5

>  <5-HT5>
5

>  <5-HT6>
5.46

>  <Alpha-1A>
6.41

>  <Alpha-1B>
6.37

>  <Alpha-2A>
5.72

>  <Alpha-2B>
6.57

>  <Alpha-2C>
5.84

>  <Beta-1>
5

>  <Beta-2>
5

>  <DOPAMINE D1>
5.67

>  <DOPAMINE D2>
5.23

>  <DOPAMINE D4>
5.42

>  <DOPAMINE D5>
5

>  <Dopamine transporter>
5

>  <HISTAMINE H1>
7.18

>  <HISTAMINE H4>
5

>  <Muscarinic acetylcholine receptor M1>
5

>  <Muscarinic acetylcholine receptor M2>
5

>  <Muscarinic acetylcholine receptor M3>
5

>  <Muscarinic acetylcholine receptor M4>
5

>  <Muscarinic acetylcholine receptor M5>
5

>  <Norepinephrine transporter>
5

>  <Serotonin transporter>
5

$$$$
123310
  Marvin  02231216192D 0   1.00000     0.00000     0

 18 19  0  0  1  0  0  0  0  0999 V2000
    3.7443   -1.6664    0.0000 F   0  0  0  0  0  0  0  0  0
    3.0299   -1.2539    0.0000 C   0  0  0  0  0  0  0  0  0
    2.3154   -1.6664    0.0000 C   0  0  0  0  0  0  0  0  0
    1.6009   -1.2539    0.0000 C   0  0  0  0  0  0  0  0  0
    0.8163   -1.5089    0.0000 C   0  0  0  0  0  0  0  0  0
    0.3314   -0.8414    0.0000 C   0  0  0  0  0  0  0  0  0
    0.8163   -0.1740    0.0000 N   0  0  0  0  0  0  0  0  0
    1.6009   -0.4289    0.0000 C   0  0  0  0  0  0  0  0  0
    2.3154   -0.0164    0.0000 C   0  0  0  0  0  0  0  0  0
    3.0299   -0.4289    0.0000 C   0  0  0  0  0  0  0  0  0
    3.7443   -0.0164    0.0000 C   0  0  0  0  0  0  0  0  0
    4.4588    0.3961    0.0000 F   0  0  0  0  0  0  0  0  0
    3.3318    0.6980    0.0000 F   0  0  0  0  0  0  0  0  0
    4.1568   -0.7309    0.0000 F   0  0  0  0  0  0  0  0  0
    0.5614    0.6106    0.0000 C   0  0  0  0  0  0  0  0  0
    1.1134    1.2237    0.0000 C   0  0  0  0  0  0  0  0  0
    0.8585    2.0084    0.0000 N   0  0  0  0  0  0  0  0  0
    1.9204    1.0522    0.0000 C   0  0  0  0  0  0  0  0  0
  1  2  1  0  0  0  0
  2  3  4  0  0  0  0
  2 10  4  0  0  0  0
  3  4  4  0  0  0  0
  4  5  1  0  0  0  0
  4  8  4  0  0  0  0
  5  6  1  0  0  0  0
  6  7  1  0  0  0  0
  7  8  1  0  0  0  0
  7 15  1  0  0  0  0
  8  9  4  0  0  0  0
  9 10  4  0  0  0  0
 10 11  1  0  0  0  0
 11 12  1  0  0  0  0
 11 13  1  0  0  0  0
 11 14  1  0  0  0  0
 15 16  1  0  0  0  0
 16 17  1  0  0  0  0
 16 18  1  0  0  0  0
M  END
>  <Name_Molregno>
123310

>  <5-HT2A>
6.36

>  <5-HT2C>
7.59

$$$$
123311
  Marvin  02231216192D 0   1.00000     0.00000     0

 17 18  0  0  1  0  0  0  0  0999 V2000
    0.3357    0.7750    0.0000 S   0  0  0  0  0  0  0  0  0
    1.0502    1.1875    0.0000 C   0  0  0  0  0  0  0  0  0
    1.7647    0.7750    0.0000 C   0  0  0  0  0  0  0  0  0
   -0.3787    1.1875    0.0000 C   0  0  0  0  0  0  0  0  0
   -1.0932    0.7750    0.0000 C   0  0  0  0  0  0  0  0  0
   -1.8077    1.1875    0.0000 C   0  0  0  0  0  0  0  0  0
   -2.5923    0.9326    0.0000 N   0  0  0  0  0  0  0  0  0
   -3.0772    1.6000    0.0000 C   0  0  0  0  0  0  0  0  0
   -2.5923    2.2675    0.0000 C   0  0  0  0  0  0  0  0  0
   -1.8077    2.0125    0.0000 C   0  0  0  0  0  0  0  0  0
   -1.0932    2.4250    0.0000 C   0  0  0  0  0  0  0  0  0
   -0.3787    2.0125    0.0000 C   0  0  0  0  0  0  0  0  0
    0.3357    2.4250    0.0000 F   0  0  0  0  0  0  0  0  0
   -2.8472    0.1480    0.0000 C   0  0  0  0  0  0  0  0  0
   -3.6542   -0.0235    0.0000 C   0  0  0  0  0  0  0  0  0
   -3.9092   -0.8082    0.0000 N   0  0  0  0  0  0  0  0  0
   -4.2062    0.5896    0.0000 C   0  0  0  0  0  0  0  0  0
  1  2  1  0  0  0  0
  1  4  1  0  0  0  0
  2  3  1  0  0  0  0
  4  5  4  0  0  0  0
  4 12  4  0  0  0  0
  5  6  4  0  0  0  0
  6  7  1  0  0  0  0
  6 10  4  0  0  0  0
  7  8  1  0  0  0  0
  7 14  1  0  0  0  0
  8  9  1  0  0  0  0
  9 10  1  0  0  0  0
 10 11  4  0  0  0  0
 11 12  4  0  0  0  0
 12 13  1  0  0  0  0
 14 15  1  0  0  0  0
 15 16  1  0  0  0  0
 15 17  1  0  0  0  0
M  END
>  <Name_Molregno>
123311

>  <5-HT2A>
7.24

>  <5-HT2C>
8.19

$$$$
123314
  Marvin  02231216192D 0   1.00000     0.00000     0

 17 19  0  0  1  0  0  0  0  0999 V2000
   -3.5917    0.0374    0.0000 O   0  0  0  0  0  0  0  0  0
   -4.0263    0.7387    0.0000 C   0  0  0  0  0  0  0  0  0
   -3.6363    1.4657    0.0000 C   0  0  0  0  0  0  0  0  0
   -2.8117    1.4915    0.0000 C   0  0  0  0  0  0  0  0  0
   -2.3771    0.7902    0.0000 C   0  0  0  0  0  0  0  0  0
   -1.5525    0.8160    0.0000 C   0  0  0  0  0  0  0  0  0
   -1.0199    1.4460    0.0000 N   0  0  0  0  0  0  0  0  0
   -0.2561    1.1342    0.0000 C   0  0  0  0  0  0  0  0  0
   -0.3166    0.3114    0.0000 C   0  0  0  0  0  0  0  0  0
   -1.1179    0.1147    0.0000 C   0  0  0  0  0  0  0  0  0
   -1.5078   -0.6123    0.0000 C   0  0  0  0  0  0  0  0  0
   -2.3324   -0.6380    0.0000 C   0  0  0  0  0  0  0  0  0
   -2.7671    0.0632    0.0000 C   0  0  0  0  0  0  0  0  0
   -1.2165    2.2472    0.0000 C   0  0  0  0  0  0  0  0  0
   -0.6209    2.8181    0.0000 C   0  0  0  0  0  0  0  0  0
   -0.8176    3.6194    0.0000 N   0  0  0  0  0  0  0  0  0
    0.1713    2.5878    0.0000 C   0  0  0  0  0  0  0  0  0
  1  2  1  0  0  0  0
  1 13  1  0  0  0  0
  2  3  1  0  0  0  0
  3  4  1  0  0  0  0
  4  5  1  0  0  0  0
  5  6  4  0  0  0  0
  5 13  4  0  0  0  0
  6  7  1  0  0  0  0
  6 10  4  0  0  0  0
  7  8  1  0  0  0  0
  7 14  1  0  0  0  0
  8  9  1  0  0  0  0
  9 10  1  0  0  0  0
 10 11  4  0  0  0  0
 11 12  4  0  0  0  0
 12 13  4  0  0  0  0
 14 15  1  0  0  0  0
 15 16  1  0  0  0  0
 15 17  1  0  0  0  0
M  END
>  <Name_Molregno>
123314

>  <5-HT2A>
6.4

>  <5-HT2C>
7.42

$$$$
123335
  Marvin  02231216192D 0   1.00000     0.00000     0

 15 16  0  0  1  0  0  0  0  0999 V2000
    0.5502   -1.8283    0.0000 Cl  0  0  0  0  0  0  0  0  0
   -0.1642   -1.4158    0.0000 C   0  0  0  0  0  0  0  0  0
   -0.8787   -1.8283    0.0000 C   0  0  0  0  0  0  0  0  0
   -1.5932   -1.4158    0.0000 C   0  0  0  0  0  0  0  0  0
   -2.3778   -1.6707    0.0000 N   0  0  0  0  0  0  0  0  0
   -2.8627   -1.0033    0.0000 C   0  0  0  0  0  0  0  0  0
   -2.3778   -0.3358    0.0000 C   0  0  0  0  0  0  0  0  0
   -1.5932   -0.5908    0.0000 C   0  0  0  0  0  0  0  0  0
   -0.8787   -0.1783    0.0000 C   0  0  0  0  0  0  0  0  0
   -0.1642   -0.5908    0.0000 C   0  0  0  0  0  0  0  0  0
    0.5502   -0.1783    0.0000 F   0  0  0  0  0  0  0  0  0
   -2.6327   -2.4553    0.0000 C   0  0  0  0  0  0  0  0  0
   -3.4397   -2.6268    0.0000 C   0  0  0  0  0  0  0  0  0
   -3.6946   -3.4115    0.0000 N   0  0  0  0  0  0  0  0  0
   -3.9917   -2.0138    0.0000 C   0  0  0  0  0  0  0  0  0
  1  2  1  0  0  0  0
  2  3  4  0  0  0  0
  2 10  4  0  0  0  0
  3  4  4  0  0  0  0
  4  5  1  0  0  0  0
  4  8  4  0  0  0  0
  5  6  1  0  0  0  0
  5 12  1  0  0  0  0
  6  7  1  0  0  0  0
  7  8  1  0  0  0  0
  8  9  4  0  0  0  0
  9 10  4  0  0  0  0
 10 11  1  0  0  0  0
 12 13  1  0  0  0  0
 13 14  1  0  0  0  0
 13 15  1  0  0  0  0
M  END
>  <Name_Molregno>
123335

>  <5-HT2A>
7.23

>  <5-HT2C>
8.04

$$$$
123351
  Marvin  02231216192D 0   1.00000     0.00000     0

 16 18  0  0  1  0  0  0  0  0999 V2000
   -4.0700   -0.8718    0.0000 O   0  0  0  0  0  0  0  0  0
   -4.1562   -0.0514    0.0000 C   0  0  0  0  0  0  0  0  0
   -3.4025    0.2842    0.0000 C   0  0  0  0  0  0  0  0  0
   -2.8505   -0.3289    0.0000 C   0  0  0  0  0  0  0  0  0
   -2.0255   -0.3289    0.0000 C   0  0  0  0  0  0  0  0  0
   -1.4735    0.2842    0.0000 N   0  0  0  0  0  0  0  0  0
   -0.7198   -0.0514    0.0000 C   0  0  0  0  0  0  0  0  0
   -0.8060   -0.8718    0.0000 C   0  0  0  0  0  0  0  0  0
   -1.6130   -1.0434    0.0000 C   0  0  0  0  0  0  0  0  0
   -2.0255   -1.7578    0.0000 C   0  0  0  0  0  0  0  0  0
   -2.8505   -1.7578    0.0000 C   0  0  0  0  0  0  0  0  0
   -3.2630   -1.0434    0.0000 C   0  0  0  0  0  0  0  0  0
   -1.6450    1.0912    0.0000 C   0  0  0  0  0  0  0  0  0
   -1.0319    1.6432    0.0000 C   0  0  0  0  0  0  0  0  0
   -1.2034    2.4502    0.0000 N   0  0  0  0  0  0  0  0  0
   -0.2473    1.3883    0.0000 C   0  0  0  0  0  0  0  0  0
  1  2  1  0  0  0  0
  1 12  1  0  0  0  0
  2  3  1  0  0  0  0
  3  4  1  0  0  0  0
  4  5  4  0  0  0  0
  4 12  4  0  0  0  0
  5  6  1  0  0  0  0
  5  9  4  0  0  0  0
  6  7  1  0  0  0  0
  6 13  1  0  0  0  0
  7  8  1  0  0  0  0
  8  9  1  0  0  0  0
  9 10  4  0  0  0  0
 10 11  4  0  0  0  0
 11 12  4  0  0  0  0
 13 14  1  0  0  0  0
 14 15  1  0  0  0  0
 14 16  1  0  0  0  0
M  END
>  <Name_Molregno>
123351

>  <5-HT2A>
6.95

>  <5-HT2C>
8.06

$$$$
124056
  Marvin  02231216192D 0   1.00000     0.00000     0

 14 15  0  0  1  0  0  0  0  0999 V2000
    0.1624   -1.0405    0.0000 Cl  0  0  0  0  0  0  0  0  0
   -0.5521   -0.6280    0.0000 C   0  0  0  0  0  0  0  0  0
   -1.2666   -1.0405    0.0000 C   0  0  0  0  0  0  0  0  0
   -1.9811   -0.6280    0.0000 C   0  0  0  0  0  0  0  0  0
   -2.7657   -0.8829    0.0000 N   0  0  0  0  0  0  0  0  0
   -3.2506   -0.2155    0.0000 C   0  0  0  0  0  0  0  0  0
   -2.7657    0.4520    0.0000 C   0  0  0  0  0  0  0  0  0
   -1.9811    0.1970    0.0000 C   0  0  0  0  0  0  0  0  0
   -1.2666    0.6095    0.0000 C   0  0  0  0  0  0  0  0  0
   -0.5521    0.1970    0.0000 C   0  0  0  0  0  0  0  0  0
   -3.0206   -1.6675    0.0000 C   0  0  0  0  0  0  0  0  0
   -3.8276   -1.8391    0.0000 C   0  0  0  0  0  0  0  0  0
   -4.0825   -2.6237    0.0000 N   0  0  0  0  0  0  0  0  0
   -4.3796   -1.2260    0.0000 C   0  0  0  0  0  0  0  0  0
  1  2  1  0  0  0  0
  2  3  4  0  0  0  0
  2 10  4  0  0  0  0
  3  4  4  0  0  0  0
  4  5  1  0  0  0  0
  4  8  4  0  0  0  0
  5  6  1  0  0  0  0
  5 11  1  0  0  0  0
  6  7  1  0  0  0  0
  7  8  1  0  0  0  0
  8  9  4  0  0  0  0
  9 10  4  0  0  0  0
 11 12  1  0  0  0  0
 12 13  1  0  0  0  0
 12 14  1  0  0  0  0
M  END
>  <Name_Molregno>
124056

>  <5-HT2A>
6.44

>  <5-HT2C>
7.89

$$$$
124058
  Marvin  02231216192D 0   1.00000     0.00000     0

 15 16  0  0  1  0  0  0  0  0999 V2000
    0.4908   -1.6385    0.0000 S   0  0  0  0  0  0  0  0  0
    1.2053   -1.2260    0.0000 C   0  0  0  0  0  0  0  0  0
   -0.2236   -1.2260    0.0000 C   0  0  0  0  0  0  0  0  0
   -0.9381   -1.6385    0.0000 C   0  0  0  0  0  0  0  0  0
   -1.6526   -1.2260    0.0000 C   0  0  0  0  0  0  0  0  0
   -2.4372   -1.4809    0.0000 N   0  0  0  0  0  0  0  0  0
   -2.9221   -0.8135    0.0000 C   0  0  0  0  0  0  0  0  0
   -2.4372   -0.1460    0.0000 C   0  0  0  0  0  0  0  0  0
   -1.6526   -0.4010    0.0000 C   0  0  0  0  0  0  0  0  0
   -0.9381    0.0115    0.0000 C   0  0  0  0  0  0  0  0  0
   -0.2236   -0.4010    0.0000 C   0  0  0  0  0  0  0  0  0
   -2.6921   -2.2655    0.0000 C   0  0  0  0  0  0  0  0  0
   -3.4991   -2.4371    0.0000 C   0  0  0  0  0  0  0  0  0
   -3.7541   -3.2217    0.0000 N   0  0  0  0  0  0  0  0  0
   -4.0511   -1.8240    0.0000 C   0  0  0  0  0  0  0  0  0
  1  2  1  0  0  0  0
  1  3  1  0  0  0  0
  3  4  4  0  0  0  0
  3 11  4  0  0  0  0
  4  5  4  0  0  0  0
  5  6  1  0  0  0  0
  5  9  4  0  0  0  0
  6  7  1  0  0  0  0
  6 12  1  0  0  0  0
  7  8  1  0  0  0  0
  8  9  1  0  0  0  0
  9 10  4  0  0  0  0
 10 11  4  0  0  0  0
 12 13  1  0  0  0  0
 13 14  1  0  0  0  0
 13 15  1  0  0  0  0
M  END
>  <Name_Molregno>
124058

>  <5-HT2A>
6.77

>  <5-HT2C>
8.24

$$$$
124125
  Marvin  02231216192D 0   1.00000     0.00000     0

 16 17  0  0  1  0  0  0  0  0999 V2000
    0.1436   -0.9434    0.0000 S   0  0  0  0  0  0  0  0  0
    0.8581   -0.5309    0.0000 C   0  0  0  0  0  0  0  0  0
    1.5726   -0.9434    0.0000 C   0  0  0  0  0  0  0  0  0
   -0.5708   -0.5309    0.0000 C   0  0  0  0  0  0  0  0  0
   -1.2853   -0.9434    0.0000 C   0  0  0  0  0  0  0  0  0
   -1.9998   -0.5309    0.0000 C   0  0  0  0  0  0  0  0  0
   -2.7844   -0.7859    0.0000 N   0  0  0  0  0  0  0  0  0
   -3.2693   -0.1184    0.0000 C   0  0  0  0  0  0  0  0  0
   -2.7844    0.5490    0.0000 C   0  0  0  0  0  0  0  0  0
   -1.9998    0.2941    0.0000 C   0  0  0  0  0  0  0  0  0
   -1.2853    0.7066    0.0000 C   0  0  0  0  0  0  0  0  0
   -0.5708    0.2941    0.0000 C   0  0  0  0  0  0  0  0  0
   -3.0393   -1.5705    0.0000 C   0  0  0  0  0  0  0  0  0
   -3.8463   -1.7420    0.0000 C   0  0  0  0  0  0  0  0  0
   -4.1012   -2.5266    0.0000 N   0  0  0  0  0  0  0  0  0
   -4.3983   -1.1289    0.0000 C   0  0  0  0  0  0  0  0  0
  1  2  1  0  0  0  0
  1  4  1  0  0  0  0
  2  3  1  0  0  0  0
  4  5  4  0  0  0  0
  4 12  4  0  0  0  0
  5  6  4  0  0  0  0
  6  7  1  0  0  0  0
  6 10  4  0  0  0  0
  7  8  1  0  0  0  0
  7 13  1  0  0  0  0
  8  9  1  0  0  0  0
  9 10  1  0  0  0  0
 10 11  4  0  0  0  0
 11 12  4  0  0  0  0
 13 14  1  0  0  0  0
 14 15  1  0  0  0  0
 14 16  1  0  0  0  0
M  END
>  <Name_Molregno>
124125

>  <5-HT2A>
6.74

>  <5-HT2C>
7.8

$$$$
124126
  Marvin  02231216192D 0   1.00000     0.00000     0

 14 15  0  0  1  0  0  0  0  0999 V2000
    0.1624   -1.0405    0.0000 Br  0  0  0  0  0  0  0  0  0
   -0.5521   -0.6280    0.0000 C   0  0  0  0  0  0  0  0  0
   -1.2666   -1.0405    0.0000 C   0  0  0  0  0  0  0  0  0
   -1.9811   -0.6280    0.0000 C   0  0  0  0  0  0  0  0  0
   -2.7657   -0.8829    0.0000 N   0  0  0  0  0  0  0  0  0
   -3.2506   -0.2155    0.0000 C   0  0  0  0  0  0  0  0  0
   -2.7657    0.4520    0.0000 C   0  0  0  0  0  0  0  0  0
   -1.9811    0.1970    0.0000 C   0  0  0  0  0  0  0  0  0
   -1.2666    0.6095    0.0000 C   0  0  0  0  0  0  0  0  0
   -0.5521    0.1970    0.0000 C   0  0  0  0  0  0  0  0  0
   -3.0206   -1.6675    0.0000 C   0  0  0  0  0  0  0  0  0
   -3.8276   -1.8391    0.0000 C   0  0  0  0  0  0  0  0  0
   -4.0825   -2.6237    0.0000 N   0  0  0  0  0  0  0  0  0
   -4.3796   -1.2260    0.0000 C   0  0  0  0  0  0  0  0  0
  1  2  1  0  0  0  0
  2  3  4  0  0  0  0
  2 10  4  0  0  0  0
  3  4  4  0  0  0  0
  4  5  1  0  0  0  0
  4  8  4  0  0  0  0
  5  6  1  0  0  0  0
  5 11  1  0  0  0  0
  6  7  1  0  0  0  0
  7  8  1  0  0  0  0
  8  9  4  0  0  0  0
  9 10  4  0  0  0  0
 11 12  1  0  0  0  0
 12 13  1  0  0  0  0
 12 14  1  0  0  0  0
M  END
>  <Name_Molregno>
124126

>  <5-HT2A>
6.45

>  <5-HT2C>
7.62

$$$$
124158
  Marvin  02231216192D 0   1.00000     0.00000     0

 16 17  0  0  1  0  0  0  0  0999 V2000
    0.4448    0.9084    0.0000 S   0  0  0  0  0  0  0  0  0
    1.1592    1.3209    0.0000 C   0  0  0  0  0  0  0  0  0
   -0.2697    1.3209    0.0000 C   0  0  0  0  0  0  0  0  0
   -0.9842    0.9084    0.0000 C   0  0  0  0  0  0  0  0  0
   -1.6987    1.3209    0.0000 C   0  0  0  0  0  0  0  0  0
   -2.4833    1.0659    0.0000 N   0  0  0  0  0  0  0  0  0
   -2.9682    1.7334    0.0000 C   0  0  0  0  0  0  0  0  0
   -2.4833    2.4008    0.0000 C   0  0  0  0  0  0  0  0  0
   -1.6987    2.1459    0.0000 C   0  0  0  0  0  0  0  0  0
   -0.9842    2.5584    0.0000 C   0  0  0  0  0  0  0  0  0
   -0.2697    2.1459    0.0000 C   0  0  0  0  0  0  0  0  0
    0.4448    2.5584    0.0000 F   0  0  0  0  0  0  0  0  0
   -2.7382    0.2813    0.0000 C   0  0  0  0  0  0  0  0  0
   -3.5452    0.1098    0.0000 C   0  0  0  0  0  0  0  0  0
   -3.8001   -0.6748    0.0000 N   0  0  0  0  0  0  0  0  0
   -4.0972    0.7229    0.0000 C   0  0  0  0  0  0  0  0  0
  1  2  1  0  0  0  0
  1  3  1  0  0  0  0
  3  4  4  0  0  0  0
  3 11  4  0  0  0  0
  4  5  4  0  0  0  0
  5  6  1  0  0  0  0
  5  9  4  0  0  0  0
  6  7  1  0  0  0  0
  6 13  1  0  0  0  0
  7  8  1  0  0  0  0
  8  9  1  0  0  0  0
  9 10  4  0  0  0  0
 10 11  4  0  0  0  0
 11 12  1  0  0  0  0
 13 14  1  0  0  0  0
 14 15  1  0  0  0  0
 14 16  1  0  0  0  0
M  END
>  <Name_Molregno>
124158

>  <5-HT2A>
7.28

>  <5-HT2C>
8.49

$$$$
124184
  Marvin  02231216192D 0   1.00000     0.00000     0

 15 16  0  0  1  0  0  0  0  0999 V2000
    0.5502   -1.8283    0.0000 I   0  0  0  0  0  0  0  0  0
   -0.1642   -1.4158    0.0000 C   0  0  0  0  0  0  0  0  0
   -0.8787   -1.8283    0.0000 C   0  0  0  0  0  0  0  0  0
   -1.5932   -1.4158    0.0000 C   0  0  0  0  0  0  0  0  0
   -2.3778   -1.6707    0.0000 N   0  0  0  0  0  0  0  0  0
   -2.8627   -1.0033    0.0000 C   0  0  0  0  0  0  0  0  0
   -2.3778   -0.3358    0.0000 C   0  0  0  0  0  0  0  0  0
   -1.5932   -0.5908    0.0000 C   0  0  0  0  0  0  0  0  0
   -0.8787   -0.1783    0.0000 C   0  0  0  0  0  0  0  0  0
   -0.1642   -0.5908    0.0000 C   0  0  0  0  0  0  0  0  0
    0.5502   -0.1783    0.0000 F   0  0  0  0  0  0  0  0  0
   -2.6327   -2.4553    0.0000 C   0  0  0  0  0  0  0  0  0
   -3.4397   -2.6268    0.0000 C   0  0  0  0  0  0  0  0  0
   -3.6946   -3.4115    0.0000 N   0  0  0  0  0  0  0  0  0
   -3.9917   -2.0138    0.0000 C   0  0  0  0  0  0  0  0  0
  1  2  1  0  0  0  0
  2  3  4  0  0  0  0
  2 10  4  0  0  0  0
  3  4  4  0  0  0  0
  4  5  1  0  0  0  0
  4  8  4  0  0  0  0
  5  6  1  0  0  0  0
  5 12  1  0  0  0  0
  6  7  1  0  0  0  0
  7  8  1  0  0  0  0
  8  9  4  0  0  0  0
  9 10  4  0  0  0  0
 10 11  1  0  0  0  0
 12 13  1  0  0  0  0
 13 14  1  0  0  0  0
 13 15  1  0  0  0  0
M  END
>  <Name_Molregno>
124184

>  <5-HT2A>
6.86

>  <5-HT2C>
7.77

$$$$
134821
  Marvin  02231216192D 0   1.00000     0.00000     0

 22 25  0  0  0  0  0  0  0  0999 V2000
    0.1720   -1.7789    0.0000 O   0  0  0  0  0  0  0  0  0
    0.0005   -0.9720    0.0000 C   0  0  0  0  0  0  0  0  0
   -0.7841   -0.7170    0.0000 N   0  0  0  0  0  0  0  0  0
   -1.3972   -1.2690    0.0000 C   0  0  0  0  0  0  0  0  0
   -1.2257   -2.0760    0.0000 C   0  0  0  0  0  0  0  0  0
   -1.8388   -2.6280    0.0000 C   0  0  0  0  0  0  0  0  0
   -2.6234   -2.3731    0.0000 C   0  0  0  0  0  0  0  0  0
   -2.7949   -1.5661    0.0000 N   0  0  0  0  0  0  0  0  0
   -2.1818   -1.0141    0.0000 C   0  0  0  0  0  0  0  0  0
    0.6136   -0.4199    0.0000 N   0  0  0  0  0  0  0  0  0
    0.5274    0.4006    0.0000 C   0  0  0  0  0  0  0  0  0
    1.2811    0.7361    0.0000 C   0  0  0  0  0  0  0  0  0
    1.8331    0.1230    0.0000 C   0  0  0  0  0  0  0  0  0
    2.6581    0.1230    0.0000 C   0  0  0  0  0  0  0  0  0
    3.0706   -0.5914    0.0000 C   0  0  0  0  0  0  0  0  0
    3.8776   -0.4199    0.0000 N   0  0  0  0  0  0  0  0  0
    3.9638    0.4006    0.0000 C   0  0  0  0  0  0  0  0  0
    3.2101    0.7361    0.0000 C   0  0  0  0  0  0  0  0  0
    4.4907   -0.9720    0.0000 C   0  0  0  0  0  0  0  0  0
    2.6581   -1.3059    0.0000 C   0  0  0  0  0  0  0  0  0
    1.8331   -1.3059    0.0000 C   0  0  0  0  0  0  0  0  0
    1.4206   -0.5914    0.0000 C   0  0  0  0  0  0  0  0  0
  1  2  2  0  0  0  0
  2  3  1  0  0  0  0
  2 10  1  0  0  0  0
  3  4  1  0  0  0  0
  4  5  4  0  0  0  0
  4  9  4  0  0  0  0
  5  6  4  0  0  0  0
  6  7  4  0  0  0  0
  7  8  4  0  0  0  0
  8  9  4  0  0  0  0
 10 11  1  0  0  0  0
 10 22  1  0  0  0  0
 11 12  1  0  0  0  0
 12 13  1  0  0  0  0
 13 14  4  0  0  0  0
 13 22  4  0  0  0  0
 14 15  4  0  0  0  0
 14 18  4  0  0  0  0
 15 16  4  0  0  0  0
 15 20  4  0  0  0  0
 16 17  4  0  0  0  0
 16 19  1  0  0  0  0
 17 18  4  0  0  0  0
 20 21  4  0  0  0  0
 21 22  4  0  0  0  0
M  END
>  <Name_Molregno>
134821

>  <5-HT2A>
5.54

>  <5-HT2C>
7.18

$$$$
134823
  Marvin  02231216192D 0   1.00000     0.00000     0

 23 26  0  0  0  0  0  0  0  0999 V2000
    0.4537   -1.6378    0.0000 O   0  0  0  0  0  0  0  0  0
    0.0191   -0.9365    0.0000 C   0  0  0  0  0  0  0  0  0
   -0.8055   -0.9623    0.0000 N   0  0  0  0  0  0  0  0  0
   -1.1955   -1.6893    0.0000 C   0  0  0  0  0  0  0  0  0
   -0.7609   -2.3905    0.0000 C   0  0  0  0  0  0  0  0  0
   -1.1509   -3.1176    0.0000 C   0  0  0  0  0  0  0  0  0
   -1.9755   -3.1433    0.0000 C   0  0  0  0  0  0  0  0  0
   -2.4101   -2.4421    0.0000 N   0  0  0  0  0  0  0  0  0
   -2.0201   -1.7151    0.0000 C   0  0  0  0  0  0  0  0  0
    0.4091   -0.2095    0.0000 N   0  0  0  0  0  0  0  0  0
   -0.0255    0.4917    0.0000 C   0  0  0  0  0  0  0  0  0
    0.3645    1.2187    0.0000 C   0  0  0  0  0  0  0  0  0
    1.1891    1.2445    0.0000 C   0  0  0  0  0  0  0  0  0
    1.6237    0.5432    0.0000 C   0  0  0  0  0  0  0  0  0
    2.4483    0.5690    0.0000 C   0  0  0  0  0  0  0  0  0
    2.8829   -0.1322    0.0000 C   0  0  0  0  0  0  0  0  0
    3.6841    0.0644    0.0000 N   0  0  0  0  0  0  0  0  0
    3.7447    0.8872    0.0000 C   0  0  0  0  0  0  0  0  0
    2.9809    1.1990    0.0000 C   0  0  0  0  0  0  0  0  0
    4.3141   -0.4682    0.0000 C   0  0  0  0  0  0  0  0  0
    2.4929   -0.8593    0.0000 C   0  0  0  0  0  0  0  0  0
    1.6683   -0.8850    0.0000 C   0  0  0  0  0  0  0  0  0
    1.2337   -0.1838    0.0000 C   0  0  0  0  0  0  0  0  0
  1  2  2  0  0  0  0
  2  3  1  0  0  0  0
  2 10  1  0  0  0  0
  3  4  1  0  0  0  0
  4  5  4  0  0  0  0
  4  9  4  0  0  0  0
  5  6  4  0  0  0  0
  6  7  4  0  0  0  0
  7  8  4  0  0  0  0
  8  9  4  0  0  0  0
 10 11  1  0  0  0  0
 10 23  1  0  0  0  0
 11 12  1  0  0  0  0
 12 13  1  0  0  0  0
 13 14  1  0  0  0  0
 14 15  4  0  0  0  0
 14 23  4  0  0  0  0
 15 16  4  0  0  0  0
 15 19  4  0  0  0  0
 16 17  4  0  0  0  0
 16 21  4  0  0  0  0
 17 18  4  0  0  0  0
 17 20  1  0  0  0  0
 18 19  4  0  0  0  0
 21 22  4  0  0  0  0
 22 23  4  0  0  0  0
M  END
>  <Name_Molregno>
134823

>  <5-HT2A>
5.2

>  <5-HT2C>
5.2

$$$$
134824
  Marvin  02231216192D 0   1.00000     0.00000     0

 20 22  0  0  0  0  0  0  0  0999 V2000
    0.8654   -1.1075    0.0000 O   0  0  0  0  0  0  0  0  0
    1.5799   -0.6950    0.0000 C   0  0  0  0  0  0  0  0  0
    1.5799    0.1300    0.0000 N   0  0  0  0  0  0  0  0  0
    0.8654    0.5425    0.0000 C   0  0  0  0  0  0  0  0  0
    0.1510    0.1300    0.0000 C   0  0  0  0  0  0  0  0  0
   -0.5635    0.5425    0.0000 C   0  0  0  0  0  0  0  0  0
   -0.5635    1.3675    0.0000 C   0  0  0  0  0  0  0  0  0
   -1.3481    1.6224    0.0000 N   0  0  0  0  0  0  0  0  0
   -1.8331    0.9550    0.0000 C   0  0  0  0  0  0  0  0  0
   -1.3481    0.2875    0.0000 C   0  0  0  0  0  0  0  0  0
   -1.6031    2.4070    0.0000 C   0  0  0  0  0  0  0  0  0
    0.1510    1.7800    0.0000 C   0  0  0  0  0  0  0  0  0
    0.8654    1.3675    0.0000 C   0  0  0  0  0  0  0  0  0
    2.2944   -1.1075    0.0000 N   0  0  0  0  0  0  0  0  0
    2.2944   -1.9325    0.0000 C   0  0  0  0  0  0  0  0  0
    3.0088   -2.3450    0.0000 C   0  0  0  0  0  0  0  0  0
    3.0088   -3.1700    0.0000 C   0  0  0  0  0  0  0  0  0
    2.2944   -3.5825    0.0000 C   0  0  0  0  0  0  0  0  0
    1.5799   -3.1700    0.0000 N   0  0  0  0  0  0  0  0  0
    1.5799   -2.3450    0.0000 C   0  0  0  0  0  0  0  0  0
  1  2  2  0  0  0  0
  2  3  1  0  0  0  0
  2 14  1  0  0  0  0
  3  4  1  0  0  0  0
  4  5  4  0  0  0  0
  4 13  4  0  0  0  0
  5  6  4  0  0  0  0
  6  7  4  0  0  0  0
  6 10  4  0  0  0  0
  7  8  4  0  0  0  0
  7 12  4  0  0  0  0
  8  9  4  0  0  0  0
  8 11  1  0  0  0  0
  9 10  4  0  0  0  0
 12 13  4  0  0  0  0
 14 15  1  0  0  0  0
 15 16  4  0  0  0  0
 15 20  4  0  0  0  0
 16 17  4  0  0  0  0
 17 18  4  0  0  0  0
 18 19  4  0  0  0  0
 19 20  4  0  0  0  0
M  END
>  <Name_Molregno>
134824

>  <5-HT2A>
5.2

>  <5-HT2C>
6.86

$$$$
134941
  Marvin  02231216192D 0   1.00000     0.00000     0

 23 26  0  0  0  0  0  0  0  0999 V2000
   -0.7890   -1.3892    0.0000 O   0  0  0  0  0  0  0  0  0
   -0.0745   -0.9767    0.0000 C   0  0  0  0  0  0  0  0  0
    0.6400   -1.3892    0.0000 N   0  0  0  0  0  0  0  0  0
    0.6400   -2.2142    0.0000 C   0  0  0  0  0  0  0  0  0
    1.3544   -2.6267    0.0000 C   0  0  0  0  0  0  0  0  0
    1.3544   -3.4517    0.0000 C   0  0  0  0  0  0  0  0  0
    0.6400   -3.8642    0.0000 C   0  0  0  0  0  0  0  0  0
   -0.0745   -3.4517    0.0000 N   0  0  0  0  0  0  0  0  0
   -0.0745   -2.6267    0.0000 C   0  0  0  0  0  0  0  0  0
   -0.0745   -0.1517    0.0000 N   0  0  0  0  0  0  0  0  0
    0.6400    0.2608    0.0000 C   0  0  0  0  0  0  0  0  0
    0.6400    1.0858    0.0000 C   0  0  0  0  0  0  0  0  0
   -0.0745    1.4983    0.0000 C   0  0  0  0  0  0  0  0  0
   -0.7890    1.0858    0.0000 C   0  0  0  0  0  0  0  0  0
   -0.7890    0.2608    0.0000 C   0  0  0  0  0  0  0  0  0
   -1.5034   -0.1517    0.0000 C   0  0  0  0  0  0  0  0  0
   -2.2179    0.2608    0.0000 C   0  0  0  0  0  0  0  0  0
   -2.2179    1.0858    0.0000 C   0  0  0  0  0  0  0  0  0
   -3.0025    1.3408    0.0000 N   0  0  0  0  0  0  0  0  0
   -3.4875    0.6733    0.0000 C   0  0  0  0  0  0  0  0  0
   -3.0025    0.0059    0.0000 C   0  0  0  0  0  0  0  0  0
   -3.2575    2.1254    0.0000 C   0  0  0  0  0  0  0  0  0
   -1.5034    1.4983    0.0000 C   0  0  0  0  0  0  0  0  0
  1  2  2  0  0  0  0
  2  3  1  0  0  0  0
  2 10  1  0  0  0  0
  3  4  1  0  0  0  0
  4  5  4  0  0  0  0
  4  9  4  0  0  0  0
  5  6  4  0  0  0  0
  6  7  4  0  0  0  0
  7  8  4  0  0  0  0
  8  9  4  0  0  0  0
 10 11  1  0  0  0  0
 10 15  1  0  0  0  0
 11 12  1  0  0  0  0
 12 13  1  0  0  0  0
 13 14  1  0  0  0  0
 14 15  4  0  0  0  0
 14 23  4  0  0  0  0
 15 16  4  0  0  0  0
 16 17  4  0  0  0  0
 17 18  4  0  0  0  0
 17 21  4  0  0  0  0
 18 19  4  0  0  0  0
 18 23  4  0  0  0  0
 19 20  4  0  0  0  0
 19 22  1  0  0  0  0
 20 21  4  0  0  0  0
M  END
>  <Name_Molregno>
134941

>  <5-HT2A>
5.2

>  <5-HT2C>
5.39

$$$$
137398
  Marvin  02231216192D 0   1.00000     0.00000     0

 33 37  0  0  0  0  0  0  0  0999 V2000
    3.8943    2.1300    0.0000 O   0  0  0  0  0  0  0  0  0
    3.1798    2.5425    0.0000 C   0  0  0  0  0  0  0  0  0
    2.4653    2.1300    0.0000 N   0  0  0  0  0  0  0  0  0
    2.4653    1.3050    0.0000 C   0  0  0  0  0  0  0  0  0
    3.1798    0.8925    0.0000 C   0  0  0  0  0  0  0  0  0
    3.1798    0.0675    0.0000 C   0  0  0  0  0  0  0  0  0
    2.4653   -0.3450    0.0000 C   0  0  0  0  0  0  0  0  0
    1.7509    0.0675    0.0000 C   0  0  0  0  0  0  0  0  0
    1.7509    0.8925    0.0000 C   0  0  0  0  0  0  0  0  0
    2.4653   -1.1700    0.0000 C   0  0  0  0  0  0  0  0  0
    1.7509   -1.5825    0.0000 C   0  0  0  0  0  0  0  0  0
    1.7509   -2.4075    0.0000 N   0  0  0  0  0  0  0  0  0
    2.4653   -2.8200    0.0000 C   0  0  0  0  0  0  0  0  0
    2.4653   -3.6450    0.0000 C   0  0  0  0  0  0  0  0  0
    1.7509   -4.0575    0.0000 C   0  0  0  0  0  0  0  0  0
    1.7509   -4.8825    0.0000 C   0  0  0  0  0  0  0  0  0
    1.0364   -5.2950    0.0000 C   0  0  0  0  0  0  0  0  0
    0.3219   -4.8825    0.0000 C   0  0  0  0  0  0  0  0  0
    0.3219   -4.0575    0.0000 C   0  0  0  0  0  0  0  0  0
    1.0364   -3.6450    0.0000 C   0  0  0  0  0  0  0  0  0
    1.0364   -2.8200    0.0000 C   0  0  0  0  0  0  0  0  0
    1.0364   -6.1200    0.0000 C   0  0  0  0  0  0  0  0  0
    1.0364   -6.9450    0.0000 N   0  0  0  0  0  0  0  0  0
    3.1798    3.3675    0.0000 C   0  0  0  0  0  0  0  0  0
    3.8943    3.7800    0.0000 C   0  0  0  0  0  0  0  0  0
    3.8943    4.6050    0.0000 C   0  0  0  0  0  0  0  0  0
    3.1798    5.0175    0.0000 N   0  0  0  0  0  0  0  0  0
    2.4653    4.6050    0.0000 C   0  0  0  0  0  0  0  0  0
    2.4653    3.7800    0.0000 C   0  0  0  0  0  0  0  0  0
    4.6088    5.0175    0.0000 C   0  0  0  0  0  0  0  0  0
    5.3232    4.6050    0.0000 C   0  0  0  0  0  0  0  0  0
    5.3232    3.7800    0.0000 C   0  0  0  0  0  0  0  0  0
    4.6088    3.3675    0.0000 C   0  0  0  0  0  0  0  0  0
  1  2  2  0  0  0  0
  2  3  1  0  0  0  0
  2 24  1  0  0  0  0
  3  4  1  0  0  0  0
  4  5  1  0  0  0  0
  4  9  1  0  0  0  0
  5  6  1  0  0  0  0
  6  7  1  0  0  0  0
  7  8  1  0  0  0  0
  7 10  1  0  0  0  0
  8  9  1  0  0  0  0
 10 11  1  0  0  0  0
 11 12  1  0  0  0  0
 12 13  1  0  0  0  0
 12 21  1  0  0  0  0
 13 14  1  0  0  0  0
 14 15  1  0  0  0  0
 15 16  4  0  0  0  0
 15 20  4  0  0  0  0
 16 17  4  0  0  0  0
 17 18  4  0  0  0  0
 17 22  1  0  0  0  0
 18 19  4  0  0  0  0
 19 20  4  0  0  0  0
 20 21  1  0  0  0  0
 22 23  3  0  0  0  0
 24 25  4  0  0  0  0
 24 29  4  0  0  0  0
 25 26  4  0  0  0  0
 25 33  4  0  0  0  0
 26 27  4  0  0  0  0
 26 30  4  0  0  0  0
 27 28  4  0  0  0  0
 28 29  4  0  0  0  0
 30 31  4  0  0  0  0
 31 32  4  0  0  0  0
 32 33  4  0  0  0  0
M  END
>  <Name_Molregno>
137398

>  <5-HT1A>
5.3

>  <5-HT1B>
5.2

>  <5-HT1D>
5.85

>  <5-HT1E>
5

>  <5-HT2A>
5

>  <5-HT2C>
5

>  <5-HT6>
5

>  <5-HT7>
5

>  <DOPAMINE D2>
6.17

>  <DOPAMINE D3>
8.18

$$$$
138225
  Marvin  02231216192D 0   1.00000     0.00000     0

 18 20  0  0  1  0  0  0  0  0999 V2000
    0.0739   -1.9205    0.0000 O   0  0  0  0  0  0  0  0  0
    0.7883   -1.5080    0.0000 C   0  0  0  0  0  0  0  0  0
   -0.6406   -1.5080    0.0000 C   0  0  0  0  0  0  0  0  0
   -1.3551   -1.9205    0.0000 C   0  0  0  0  0  0  0  0  0
   -2.0696   -1.5080    0.0000 C   0  0  0  0  0  0  0  0  0
   -2.0696   -0.6830    0.0000 C   0  0  0  0  0  0  0  0  0
   -1.3551   -0.2705    0.0000 C   0  0  0  0  0  0  0  0  0
   -0.6406   -0.6830    0.0000 C   0  0  0  0  0  0  0  0  0
   -2.7840   -0.2705    0.0000 C   0  0  0  0  0  0  0  0  0
   -3.4985   -0.6830    0.0000 C   0  0  0  0  0  0  0  0  0
   -3.4985   -1.5080    0.0000 C   0  0  0  0  0  0  0  0  0
   -2.7840   -1.9205    0.0000 C   0  0  0  0  0  0  0  0  0
   -4.2130   -1.9205    0.0000 C   0  0  0  0  0  0  0  0  0
   -4.9274   -1.5080    0.0000 C   0  0  0  0  0  0  0  0  0
   -4.9274   -0.6830    0.0000 C   0  0  0  0  0  0  0  0  0
   -4.2130   -0.2705    0.0000 C   0  0  0  0  0  0  0  0  0
   -2.7840    0.5545    0.0000 C   0  0  0  0  0  0  0  0  0
   -3.4985    0.9670    0.0000 N   0  0  0  0  0  0  0  0  0
  1  2  1  0  0  0  0
  1  3  1  0  0  0  0
  3  4  4  0  0  0  0
  3  8  4  0  0  0  0
  4  5  4  0  0  0  0
  5  6  4  0  0  0  0
  5 12  1  0  0  0  0
  6  7  4  0  0  0  0
  6  9  1  0  0  0  0
  7  8  4  0  0  0  0
  9 10  1  0  0  0  0
  9 17  1  0  0  0  0
 10 11  4  0  0  0  0
 10 16  4  0  0  0  0
 11 12  1  0  0  0  0
 11 13  4  0  0  0  0
 13 14  4  0  0  0  0
 14 15  4  0  0  0  0
 15 16  4  0  0  0  0
 17 18  1  0  0  0  0
M  END
>  <Name_Molregno>
138225

>  <5-HT2A>
8.12

$$$$
146922
  Marvin  02231216192D 0   1.00000     0.00000     0

 23 26  0  0  0  0  0  0  0  0999 V2000
   -1.4601   -1.4085    0.0000 N   0  0  0  0  0  0  0  0  0
   -0.6755   -1.1535    0.0000 C   0  0  0  0  0  0  0  0  0
   -0.6755   -0.3285    0.0000 C   0  0  0  0  0  0  0  0  0
    0.0390    0.0840    0.0000 C   0  0  0  0  0  0  0  0  0
    0.7535   -0.3285    0.0000 C   0  0  0  0  0  0  0  0  0
    0.7535   -1.1535    0.0000 C   0  0  0  0  0  0  0  0  0
    0.0390   -1.5660    0.0000 C   0  0  0  0  0  0  0  0  0
   -1.4601   -0.0736    0.0000 C   0  0  0  0  0  0  0  0  0
   -1.7150    0.7110    0.0000 C   0  0  0  0  0  0  0  0  0
   -1.1630    1.3241    0.0000 C   0  0  0  0  0  0  0  0  0
   -1.4179    2.1088    0.0000 N   0  0  0  0  0  0  0  0  0
   -2.2249    2.2803    0.0000 C   0  0  0  0  0  0  0  0  0
   -2.4799    3.0649    0.0000 C   0  0  0  0  0  0  0  0  0
   -1.9278    3.6780    0.0000 C   0  0  0  0  0  0  0  0  0
   -1.1209    3.5065    0.0000 C   0  0  0  0  0  0  0  0  0
   -0.8659    2.7218    0.0000 C   0  0  0  0  0  0  0  0  0
   -1.9450   -0.7410    0.0000 C   0  0  0  0  0  0  0  0  0
   -2.7700   -0.7410    0.0000 C   0  0  0  0  0  0  0  0  0
   -3.1825   -1.4555    0.0000 C   0  0  0  0  0  0  0  0  0
   -4.0075   -1.4555    0.0000 C   0  0  0  0  0  0  0  0  0
   -4.4200   -0.7410    0.0000 C   0  0  0  0  0  0  0  0  0
   -4.0075   -0.0266    0.0000 C   0  0  0  0  0  0  0  0  0
   -3.1825   -0.0266    0.0000 C   0  0  0  0  0  0  0  0  0
  1  2  4  0  0  0  0
  1 17  4  0  0  0  0
  2  3  4  0  0  0  0
  2  7  4  0  0  0  0
  3  4  4  0  0  0  0
  3  8  4  0  0  0  0
  4  5  4  0  0  0  0
  5  6  4  0  0  0  0
  6  7  4  0  0  0  0
  8  9  1  0  0  0  0
  8 17  4  0  0  0  0
  9 10  1  0  0  0  0
 10 11  1  0  0  0  0
 11 12  1  0  0  0  0
 11 16  1  0  0  0  0
 12 13  1  0  0  0  0
 13 14  1  0  0  0  0
 14 15  1  0  0  0  0
 15 16  1  0  0  0  0
 17 18  1  0  0  0  0
 18 19  4  0  0  0  0
 18 23  4  0  0  0  0
 19 20  4  0  0  0  0
 20 21  4  0  0  0  0
 21 22  4  0  0  0  0
 22 23  4  0  0  0  0
M  STY  1   1 DAT
M  SAL   1  1   1
M  SDT   1 MRV_IMPLICIT_H                                        
M  SDD   1     0.0000    0.0000    DR    ALL  0       0  
M  SED   1 IMPL_H1
M  END
>  <Name_Molregno>
146922

>  <5-HT2A>
8.57

$$$$
147331
  Marvin  02231216192D 0   1.00000     0.00000     0

 37 43  0  0  1  0  0  0  0  0999 V2000
    0.0148   -0.9095    0.0000 N   0  0  0  0  0  0  0  0  0
    0.1863   -0.1025    0.0000 C   0  0  0  0  0  0  0  0  0
   -0.5282    0.3100    0.0000 C   0  0  0  0  0  0  0  0  0
   -0.5282    1.1350    0.0000 C   0  0  0  0  0  0  0  0  0
    0.1863    1.5475    0.0000 C   0  0  0  0  0  0  0  0  0
    0.9008    1.1350    0.0000 C   0  0  0  0  0  0  0  0  0
    0.9008    0.3100    0.0000 C   0  0  0  0  0  0  0  0  0
   -1.1413   -0.2420    0.0000 C   0  0  0  0  0  0  0  0  0
   -0.8057   -0.9957    0.0000 C   0  0  0  0  0  0  0  0  0
   -1.2182   -1.7102    0.0000 C   0  0  0  0  0  0  0  0  0
   -0.8057   -2.4246    0.0000 C   0  0  0  0  0  0  0  0  0
   -1.2182   -3.1391    0.0000 C   0  0  0  0  0  0  0  0  0
   -2.0432   -3.1391    0.0000 C   0  0  0  0  0  0  0  0  0
   -2.4557   -2.4246    0.0000 C   0  0  0  0  0  0  0  0  0
   -2.0432   -1.7102    0.0000 C   0  0  0  0  0  0  0  0  0
   -1.9482   -0.0705    0.0000 C   0  0  0  0  0  0  0  0  0
   -2.5003   -0.6836    0.0000 C   0  0  0  0  0  0  0  0  0
   -3.3072   -0.5121    0.0000 C   0  0  0  0  0  0  0  0  0
   -3.5622    0.2726    0.0000 N   0  0  0  0  0  0  0  0  0
   -3.0102    0.8857    0.0000 C   0  0  0  0  0  0  0  0  0
   -2.2032    0.7141    0.0000 C   0  0  0  0  0  0  0  0  0
   -4.3692    0.4441    0.0000 C   0  0  0  0  0  0  0  0  0
   -5.0695    0.8876    0.0000 C   0  0  0  0  0  0  0  0  0
   -5.6788    0.1864    0.0000 C   0  0  0  0  0  0  0  0  0
   -6.3807    0.0635    0.0000 N   0  0  0  0  0  0  0  0  0
   -5.6825   -0.3761    0.0000 C   0  0  0  0  0  0  0  0  0
   -5.0331    0.3467    0.0000 C   0  0  0  0  0  0  0  0  0
   -5.5002   -1.2389    0.0000 C   0  0  0  0  0  0  0  0  0
   -5.3660   -0.5256    0.0000 C   0  0  0  0  0  0  0  0  0
   -7.1902    0.2227    0.0000 C   0  0  0  0  0  0  0  0  0
   -7.7328   -0.3987    0.0000 C   0  0  0  0  0  0  0  0  0
   -8.5423   -0.2394    0.0000 C   0  0  0  0  0  0  0  0  0
   -9.0850   -0.8608    0.0000 C   0  0  0  0  0  0  0  0  0
   -9.8945   -0.7016    0.0000 C   0  0  0  0  0  0  0  0  0
  -10.1613    0.0791    0.0000 C   0  0  0  0  0  0  0  0  0
   -9.6186    0.7005    0.0000 C   0  0  0  0  0  0  0  0  0
   -8.8091    0.5412    0.0000 C   0  0  0  0  0  0  0  0  0
  1  2  4  0  0  0  0
  1  9  4  0  0  0  0
  2  3  4  0  0  0  0
  2  7  4  0  0  0  0
  3  4  4  0  0  0  0
  3  8  4  0  0  0  0
  4  5  4  0  0  0  0
  5  6  4  0  0  0  0
  6  7  4  0  0  0  0
  8  9  4  0  0  0  0
  8 16  1  0  0  0  0
  9 10  1  0  0  0  0
 10 11  4  0  0  0  0
 10 15  4  0  0  0  0
 11 12  4  0  0  0  0
 12 13  4  0  0  0  0
 13 14  4  0  0  0  0
 14 15  4  0  0  0  0
 16 17  1  0  0  0  0
 16 21  1  0  0  0  0
 17 18  1  0  0  0  0
 18 19  1  0  0  0  0
 19 20  1  0  0  0  0
 19 22  1  0  0  0  0
 20 21  1  0  0  0  0
 22 23  1  0  0  0  0
 22 27  1  0  0  0  0
 23 24  1  0  0  0  0
 24 25  1  0  0  0  0
 24 29  1  0  0  0  0
 25 26  1  0  0  0  0
 25 30  1  0  0  0  0
 26 27  1  0  0  0  0
 26 28  1  0  0  0  0
 28 29  1  0  0  0  0
 30 31  1  0  0  0  0
 31 32  1  0  0  0  0
 32 33  4  0  0  0  0
 32 37  4  0  0  0  0
 33 34  4  0  0  0  0
 34 35  4  0  0  0  0
 35 36  4  0  0  0  0
 36 37  4  0  0  0  0
M  STY  1   1 DAT
M  SAL   1  1   1
M  SDT   1 MRV_IMPLICIT_H                                        
M  SDD   1     0.0000    0.0000    DR    ALL  0       0  
M  SED   1 IMPL_H1
M  END
>  <Name_Molregno>
147331

>  <5-HT2A>
8.76

$$$$
147412
  Marvin  02231216192D 0   1.00000     0.00000     0

 29 33  0  0  0  0  0  0  0  0999 V2000
   -2.8939   -4.2097    0.0000 O   0  0  0  0  0  0  0  0  0
   -3.7189   -4.2097    0.0000 C   0  0  0  0  0  0  0  0  0
   -4.2038   -4.8772    0.0000 N   0  0  0  0  0  0  0  0  0
   -4.9884   -4.6222    0.0000 C   0  0  0  0  0  0  0  0  0
   -4.9884   -3.7972    0.0000 C   0  0  0  0  0  0  0  0  0
   -4.2038   -3.5423    0.0000 N   0  0  0  0  0  0  0  0  0
   -3.9489   -2.7577    0.0000 C   0  0  0  0  0  0  0  0  0
   -4.5009   -2.1446    0.0000 C   0  0  0  0  0  0  0  0  0
   -4.2460   -1.3600    0.0000 N   0  0  0  0  0  0  0  0  0
   -4.7980   -0.7469    0.0000 C   0  0  0  0  0  0  0  0  0
   -4.5430    0.0378    0.0000 C   0  0  0  0  0  0  0  0  0
   -3.7361    0.2093    0.0000 C   0  0  0  0  0  0  0  0  0
   -3.1840   -0.4038    0.0000 C   0  0  0  0  0  0  0  0  0
   -3.4390   -1.1884    0.0000 C   0  0  0  0  0  0  0  0  0
   -3.4811    0.9939    0.0000 C   0  0  0  0  0  0  0  0  0
   -2.6965    1.2488    0.0000 C   0  0  0  0  0  0  0  0  0
   -2.6965    2.0738    0.0000 C   0  0  0  0  0  0  0  0  0
   -3.4811    2.3288    0.0000 N   0  0  0  0  0  0  0  0  0
   -3.9661    1.6613    0.0000 C   0  0  0  0  0  0  0  0  0
   -4.7911    1.6613    0.0000 C   0  0  0  0  0  0  0  0  0
   -5.2036    0.9469    0.0000 C   0  0  0  0  0  0  0  0  0
   -6.0286    0.9469    0.0000 C   0  0  0  0  0  0  0  0  0
   -6.4411    1.6613    0.0000 C   0  0  0  0  0  0  0  0  0
   -6.0286    2.3758    0.0000 C   0  0  0  0  0  0  0  0  0
   -5.2036    2.3758    0.0000 C   0  0  0  0  0  0  0  0  0
   -1.9820    2.4863    0.0000 C   0  0  0  0  0  0  0  0  0
   -1.2676    2.0738    0.0000 C   0  0  0  0  0  0  0  0  0
   -1.2676    1.2488    0.0000 C   0  0  0  0  0  0  0  0  0
   -1.9820    0.8363    0.0000 C   0  0  0  0  0  0  0  0  0
  1  2  2  0  0  0  0
  2  3  1  0  0  0  0
  2  6  1  0  0  0  0
  3  4  1  0  0  0  0
  4  5  1  0  0  0  0
  5  6  1  0  0  0  0
  6  7  1  0  0  0  0
  7  8  1  0  0  0  0
  8  9  1  0  0  0  0
  9 10  1  0  0  0  0
  9 14  1  0  0  0  0
 10 11  1  0  0  0  0
 11 12  1  0  0  0  0
 12 13  1  0  0  0  0
 12 15  1  0  0  0  0
 13 14  1  0  0  0  0
 15 16  4  0  0  0  0
 15 19  4  0  0  0  0
 16 17  4  0  0  0  0
 16 29  4  0  0  0  0
 17 18  4  0  0  0  0
 17 26  4  0  0  0  0
 18 19  4  0  0  0  0
 19 20  1  0  0  0  0
 20 21  4  0  0  0  0
 20 25  4  0  0  0  0
 21 22  4  0  0  0  0
 22 23  4  0  0  0  0
 23 24  4  0  0  0  0
 24 25  4  0  0  0  0
 26 27  4  0  0  0  0
 27 28  4  0  0  0  0
 28 29  4  0  0  0  0
M  STY  1   1 DAT
M  SAL   1  1  18
M  SDT   1 MRV_IMPLICIT_H                                        
M  SDD   1     0.0000    0.0000    DR    ALL  0       0  
M  SED   1 IMPL_H1
M  END
>  <Name_Molregno>
147412

>  <5-HT2A>
8.14

$$$$
147443
  Marvin  02231216192D 0   1.00000     0.00000     0

 30 35  0  0  1  0  0  0  0  0999 V2000
   -0.0103   -0.3939    0.0000 N   0  0  0  0  0  0  0  0  0
    0.1613    0.4130    0.0000 C   0  0  0  0  0  0  0  0  0
   -0.5532    0.8255    0.0000 C   0  0  0  0  0  0  0  0  0
   -0.5532    1.6505    0.0000 C   0  0  0  0  0  0  0  0  0
    0.1613    2.0630    0.0000 C   0  0  0  0  0  0  0  0  0
    0.8757    1.6505    0.0000 C   0  0  0  0  0  0  0  0  0
    0.8757    0.8255    0.0000 C   0  0  0  0  0  0  0  0  0
   -1.1663    0.2735    0.0000 C   0  0  0  0  0  0  0  0  0
   -0.8307   -0.4802    0.0000 C   0  0  0  0  0  0  0  0  0
   -1.2432   -1.1947    0.0000 C   0  0  0  0  0  0  0  0  0
   -0.8307   -1.9091    0.0000 C   0  0  0  0  0  0  0  0  0
   -1.2432   -2.6236    0.0000 C   0  0  0  0  0  0  0  0  0
   -2.0682   -2.6236    0.0000 C   0  0  0  0  0  0  0  0  0
   -2.4807   -1.9091    0.0000 C   0  0  0  0  0  0  0  0  0
   -2.0682   -1.1947    0.0000 C   0  0  0  0  0  0  0  0  0
   -1.9733    0.4450    0.0000 C   0  0  0  0  0  0  0  0  0
   -2.5253   -0.1681    0.0000 C   0  0  0  0  0  0  0  0  0
   -3.3323    0.0035    0.0000 C   0  0  0  0  0  0  0  0  0
   -3.5872    0.7881    0.0000 N   0  0  0  0  0  0  0  0  0
   -3.0352    1.4012    0.0000 C   0  0  0  0  0  0  0  0  0
   -2.2282    1.2296    0.0000 C   0  0  0  0  0  0  0  0  0
   -4.3942    0.9596    0.0000 C   0  0  0  0  0  0  0  0  0
   -5.0945    1.4032    0.0000 C   0  0  0  0  0  0  0  0  0
   -5.7038    0.7019    0.0000 C   0  0  0  0  0  0  0  0  0
   -6.4057    0.5790    0.0000 N   0  0  0  0  0  0  0  0  0
   -5.7076    0.1394    0.0000 C   0  0  0  0  0  0  0  0  0
   -5.0581    0.8622    0.0000 C   0  0  0  0  0  0  0  0  0
   -5.5253   -0.7234    0.0000 C   0  0  0  0  0  0  0  0  0
   -5.3910   -0.0101    0.0000 C   0  0  0  0  0  0  0  0  0
   -7.2152    0.7382    0.0000 C   0  0  0  0  0  0  0  0  0
  1  2  4  0  0  0  0
  1  9  4  0  0  0  0
  2  3  4  0  0  0  0
  2  7  4  0  0  0  0
  3  4  4  0  0  0  0
  3  8  4  0  0  0  0
  4  5  4  0  0  0  0
  5  6  4  0  0  0  0
  6  7  4  0  0  0  0
  8  9  4  0  0  0  0
  8 16  1  0  0  0  0
  9 10  1  0  0  0  0
 10 11  4  0  0  0  0
 10 15  4  0  0  0  0
 11 12  4  0  0  0  0
 12 13  4  0  0  0  0
 13 14  4  0  0  0  0
 14 15  4  0  0  0  0
 16 17  1  0  0  0  0
 16 21  1  0  0  0  0
 17 18  1  0  0  0  0
 18 19  1  0  0  0  0
 19 20  1  0  0  0  0
 19 22  1  0  0  0  0
 20 21  1  0  0  0  0
 22 23  1  0  0  0  0
 22 27  1  0  0  0  0
 23 24  1  0  0  0  0
 24 25  1  0  0  0  0
 24 29  1  0  0  0  0
 25 26  1  0  0  0  0
 25 30  1  0  0  0  0
 26 27  1  0  0  0  0
 26 28  1  0  0  0  0
 28 29  1  0  0  0  0
M  STY  1   1 DAT
M  SAL   1  1   1
M  SDT   1 MRV_IMPLICIT_H                                        
M  SDD   1     0.0000    0.0000    DR    ALL  0       0  
M  SED   1 IMPL_H1
M  END
>  <Name_Molregno>
147443

>  <5-HT2A>
8.89

$$$$
147444
  Marvin  02231216192D 0   1.00000     0.00000     0

 22 25  0  0  0  0  0  0  0  0999 V2000
   -0.1378   -0.0850    0.0000 N   0  0  0  0  0  0  0  0  0
    0.6468    0.1700    0.0000 C   0  0  0  0  0  0  0  0  0
    0.6468    0.9950    0.0000 C   0  0  0  0  0  0  0  0  0
    1.3613    1.4075    0.0000 C   0  0  0  0  0  0  0  0  0
    2.0758    0.9950    0.0000 C   0  0  0  0  0  0  0  0  0
    2.0758    0.1700    0.0000 C   0  0  0  0  0  0  0  0  0
    1.3613   -0.2425    0.0000 C   0  0  0  0  0  0  0  0  0
   -0.1378    1.2499    0.0000 C   0  0  0  0  0  0  0  0  0
   -0.6227    0.5825    0.0000 C   0  0  0  0  0  0  0  0  0
   -1.4477    0.5825    0.0000 C   0  0  0  0  0  0  0  0  0
   -1.8602   -0.1320    0.0000 C   0  0  0  0  0  0  0  0  0
   -2.6852   -0.1320    0.0000 C   0  0  0  0  0  0  0  0  0
   -3.0977    0.5825    0.0000 C   0  0  0  0  0  0  0  0  0
   -2.6852    1.2969    0.0000 C   0  0  0  0  0  0  0  0  0
   -1.8602    1.2969    0.0000 C   0  0  0  0  0  0  0  0  0
   -0.3927    2.0345    0.0000 C   0  0  0  0  0  0  0  0  0
   -1.1997    2.2060    0.0000 C   0  0  0  0  0  0  0  0  0
   -1.4546    2.9907    0.0000 C   0  0  0  0  0  0  0  0  0
   -0.9026    3.6038    0.0000 N   0  0  0  0  0  0  0  0  0
   -0.0956    3.4322    0.0000 C   0  0  0  0  0  0  0  0  0
    0.1593    2.6476    0.0000 C   0  0  0  0  0  0  0  0  0
   -1.1575    4.3884    0.0000 C   0  0  0  0  0  0  0  0  0
  1  2  4  0  0  0  0
  1  9  4  0  0  0  0
  2  3  4  0  0  0  0
  2  7  4  0  0  0  0
  3  4  4  0  0  0  0
  3  8  4  0  0  0  0
  4  5  4  0  0  0  0
  5  6  4  0  0  0  0
  6  7  4  0  0  0  0
  8  9  4  0  0  0  0
  8 16  1  0  0  0  0
  9 10  1  0  0  0  0
 10 11  4  0  0  0  0
 10 15  4  0  0  0  0
 11 12  4  0  0  0  0
 12 13  4  0  0  0  0
 13 14  4  0  0  0  0
 14 15  4  0  0  0  0
 16 17  1  0  0  0  0
 16 21  1  0  0  0  0
 17 18  1  0  0  0  0
 18 19  1  0  0  0  0
 19 20  1  0  0  0  0
 19 22  1  0  0  0  0
 20 21  1  0  0  0  0
M  STY  1   1 DAT
M  SAL   1  1   1
M  SDT   1 MRV_IMPLICIT_H                                        
M  SDD   1     0.0000    0.0000    DR    ALL  0       0  
M  SED   1 IMPL_H1
M  END
>  <Name_Molregno>
147444

>  <5-HT2A>
8.11

$$$$
147476
  Marvin  02231216192D 0   1.00000     0.00000     0

 29 34  0  0  1  0  0  0  0  0999 V2000
    0.0563   -1.0764    0.0000 N   0  0  0  0  0  0  0  0  0
    0.2278   -0.2694    0.0000 C   0  0  0  0  0  0  0  0  0
   -0.4866    0.1431    0.0000 C   0  0  0  0  0  0  0  0  0
   -0.4866    0.9681    0.0000 C   0  0  0  0  0  0  0  0  0
    0.2278    1.3806    0.0000 C   0  0  0  0  0  0  0  0  0
    0.9423    0.9681    0.0000 C   0  0  0  0  0  0  0  0  0
    0.9423    0.1431    0.0000 C   0  0  0  0  0  0  0  0  0
   -1.0997   -0.4089    0.0000 C   0  0  0  0  0  0  0  0  0
   -0.7642   -1.1626    0.0000 C   0  0  0  0  0  0  0  0  0
   -1.1767   -1.8771    0.0000 C   0  0  0  0  0  0  0  0  0
   -0.7642   -2.5916    0.0000 C   0  0  0  0  0  0  0  0  0
   -1.1767   -3.3060    0.0000 C   0  0  0  0  0  0  0  0  0
   -2.0017   -3.3060    0.0000 C   0  0  0  0  0  0  0  0  0
   -2.4142   -2.5916    0.0000 C   0  0  0  0  0  0  0  0  0
   -2.0017   -1.8771    0.0000 C   0  0  0  0  0  0  0  0  0
   -1.9067   -0.2374    0.0000 C   0  0  0  0  0  0  0  0  0
   -2.4587   -0.8505    0.0000 C   0  0  0  0  0  0  0  0  0
   -3.2657   -0.6790    0.0000 C   0  0  0  0  0  0  0  0  0
   -3.5206    0.1056    0.0000 N   0  0  0  0  0  0  0  0  0
   -2.9686    0.7187    0.0000 C   0  0  0  0  0  0  0  0  0
   -2.1616    0.5472    0.0000 C   0  0  0  0  0  0  0  0  0
   -4.3276    0.2772    0.0000 C   0  0  0  0  0  0  0  0  0
   -5.0280    0.7207    0.0000 C   0  0  0  0  0  0  0  0  0
   -5.6373    0.0195    0.0000 C   0  0  0  0  0  0  0  0  0
   -6.3392   -0.1034    0.0000 N   0  0  0  0  0  0  0  0  0
   -5.6410   -0.5430    0.0000 C   0  0  0  0  0  0  0  0  0
   -4.9915    0.1798    0.0000 C   0  0  0  0  0  0  0  0  0
   -5.4587   -1.4058    0.0000 C   0  0  0  0  0  0  0  0  0
   -5.3244   -0.6925    0.0000 C   0  0  0  0  0  0  0  0  0
  1  2  4  0  0  0  0
  1  9  4  0  0  0  0
  2  3  4  0  0  0  0
  2  7  4  0  0  0  0
  3  4  4  0  0  0  0
  3  8  4  0  0  0  0
  4  5  4  0  0  0  0
  5  6  4  0  0  0  0
  6  7  4  0  0  0  0
  8  9  4  0  0  0  0
  8 16  1  0  0  0  0
  9 10  1  0  0  0  0
 10 11  4  0  0  0  0
 10 15  4  0  0  0  0
 11 12  4  0  0  0  0
 12 13  4  0  0  0  0
 13 14  4  0  0  0  0
 14 15  4  0  0  0  0
 16 17  1  0  0  0  0
 16 21  1  0  0  0  0
 17 18  1  0  0  0  0
 18 19  1  0  0  0  0
 19 20  1  0  0  0  0
 19 22  1  0  0  0  0
 20 21  1  0  0  0  0
 22 23  1  0  0  0  0
 22 27  1  0  0  0  0
 23 24  1  0  0  0  0
 24 25  1  0  0  0  0
 24 29  1  0  0  0  0
 25 26  1  0  0  0  0
 26 27  1  0  0  0  0
 26 28  1  0  0  0  0
 28 29  1  0  0  0  0
M  STY  1   1 DAT
M  SAL   1  1   1
M  SDT   1 MRV_IMPLICIT_H                                        
M  SDD   1     0.0000    0.0000    DR    ALL  0       0  
M  SED   1 IMPL_H1
M  END
>  <Name_Molregno>
147476

>  <5-HT2A>
8.74

$$$$
147525
  Marvin  02231216192D 0   1.00000     0.00000     0

 28 32  0  0  0  0  0  0  0  0999 V2000
   -1.9946   -2.7901    0.0000 N   0  0  0  0  0  0  0  0  0
   -1.2100   -2.5352    0.0000 C   0  0  0  0  0  0  0  0  0
   -1.2100   -1.7102    0.0000 C   0  0  0  0  0  0  0  0  0
   -0.4955   -1.2977    0.0000 C   0  0  0  0  0  0  0  0  0
    0.2190   -1.7102    0.0000 C   0  0  0  0  0  0  0  0  0
    0.2190   -2.5352    0.0000 C   0  0  0  0  0  0  0  0  0
   -0.4955   -2.9477    0.0000 C   0  0  0  0  0  0  0  0  0
   -1.9946   -1.4553    0.0000 C   0  0  0  0  0  0  0  0  0
   -2.4795   -2.1227    0.0000 C   0  0  0  0  0  0  0  0  0
   -3.3045   -2.1227    0.0000 C   0  0  0  0  0  0  0  0  0
   -3.7170   -2.8372    0.0000 C   0  0  0  0  0  0  0  0  0
   -4.5420   -2.8372    0.0000 C   0  0  0  0  0  0  0  0  0
   -4.9545   -2.1227    0.0000 C   0  0  0  0  0  0  0  0  0
   -4.5420   -1.4082    0.0000 C   0  0  0  0  0  0  0  0  0
   -3.7170   -1.4082    0.0000 C   0  0  0  0  0  0  0  0  0
   -2.2495   -0.6706    0.0000 C   0  0  0  0  0  0  0  0  0
   -3.0565   -0.4991    0.0000 C   0  0  0  0  0  0  0  0  0
   -3.3114    0.2855    0.0000 C   0  0  0  0  0  0  0  0  0
   -2.7594    0.8986    0.0000 N   0  0  0  0  0  0  0  0  0
   -1.9524    0.7271    0.0000 C   0  0  0  0  0  0  0  0  0
   -1.6975   -0.0575    0.0000 C   0  0  0  0  0  0  0  0  0
   -3.0143    1.6832    0.0000 C   0  0  0  0  0  0  0  0  0
   -2.4623    2.2963    0.0000 C   0  0  0  0  0  0  0  0  0
   -2.7173    3.0810    0.0000 C   0  0  0  0  0  0  0  0  0
   -2.1652    3.6940    0.0000 C   0  0  0  0  0  0  0  0  0
   -1.3582    3.5225    0.0000 C   0  0  0  0  0  0  0  0  0
   -1.1033    2.7379    0.0000 C   0  0  0  0  0  0  0  0  0
   -1.6553    2.1248    0.0000 C   0  0  0  0  0  0  0  0  0
  1  2  4  0  0  0  0
  1  9  4  0  0  0  0
  2  3  4  0  0  0  0
  2  7  4  0  0  0  0
  3  4  4  0  0  0  0
  3  8  4  0  0  0  0
  4  5  4  0  0  0  0
  5  6  4  0  0  0  0
  6  7  4  0  0  0  0
  8  9  4  0  0  0  0
  8 16  1  0  0  0  0
  9 10  1  0  0  0  0
 10 11  4  0  0  0  0
 10 15  4  0  0  0  0
 11 12  4  0  0  0  0
 12 13  4  0  0  0  0
 13 14  4  0  0  0  0
 14 15  4  0  0  0  0
 16 17  1  0  0  0  0
 16 21  1  0  0  0  0
 17 18  1  0  0  0  0
 18 19  1  0  0  0  0
 19 20  1  0  0  0  0
 19 22  1  0  0  0  0
 20 21  1  0  0  0  0
 22 23  1  0  0  0  0
 23 24  4  0  0  0  0
 23 28  4  0  0  0  0
 24 25  4  0  0  0  0
 25 26  4  0  0  0  0
 26 27  4  0  0  0  0
 27 28  4  0  0  0  0
M  STY  1   1 DAT
M  SAL   1  1   1
M  SDT   1 MRV_IMPLICIT_H                                        
M  SDD   1     0.0000    0.0000    DR    ALL  0       0  
M  SED   1 IMPL_H1
M  END
>  <Name_Molregno>
147525

>  <5-HT2A>
7.55

$$$$
148955
  Marvin  02231216192D 0   1.00000     0.00000     0

 16 18  0  0  1  0  0  0  0  0999 V2000
    6.0007   -1.6378    0.0000 F   0  0  0  0  0  0  0  0  0
    5.2862   -1.2253    0.0000 C   0  0  0  0  0  0  0  0  0
    4.5717   -1.6378    0.0000 C   0  0  0  0  0  0  0  0  0
    3.8572   -1.2253    0.0000 C   0  0  0  0  0  0  0  0  0
    3.0726   -1.4803    0.0000 C   0  0  0  0  0  0  0  0  0
    2.5877   -0.8128    0.0000 C   0  0  0  0  0  0  0  0  0
    3.0726   -0.1454    0.0000 C   0  0  0  0  0  0  0  0  0
    3.8572   -0.4003    0.0000 C   0  0  0  0  0  0  0  0  0
    4.5717    0.0122    0.0000 C   0  0  0  0  0  0  0  0  0
    5.2862   -0.4003    0.0000 C   0  0  0  0  0  0  0  0  0
    1.7627   -0.8128    0.0000 C   0  0  0  0  0  0  0  0  0
    1.3502   -0.0984    0.0000 C   0  0  0  0  0  0  0  0  0
    0.5297   -0.0121    0.0000 N   0  0  0  0  0  0  0  0  0
    0.3582    0.7948    0.0000 C   0  0  0  0  0  0  0  0  0
    1.0727    1.2073    0.0000 N   0  0  0  0  0  0  0  0  0
    1.6858    0.6553    0.0000 C   0  0  0  0  0  0  0  0  0
  1  2  1  0  0  0  0
  2  3  4  0  0  0  0
  2 10  4  0  0  0  0
  3  4  4  0  0  0  0
  4  5  1  0  0  0  0
  4  8  4  0  0  0  0
  5  6  1  0  0  0  0
  6  7  1  0  0  0  0
  6 11  1  0  0  0  0
  7  8  1  0  0  0  0
  8  9  4  0  0  0  0
  9 10  4  0  0  0  0
 11 12  1  0  0  0  0
 12 13  1  0  0  0  0
 12 16  1  0  0  0  0
 13 14  1  0  0  0  0
 14 15  2  0  0  0  0
 15 16  1  0  0  0  0
M  END
>  <Name_Molregno>
148955

>  <5-HT1A>
6.11

>  <5-HT2A>
6

>  <5-HT2C>
6

>  <5-HT7>
6

>  <Alpha-2A>
8.23

>  <Alpha-2B>
7.64

>  <Alpha-2C>
7.72

>  <HISTAMINE H1>
6

>  <Serotonin transporter>
7.11

$$$$
151714
  Marvin  02231216192D 0   1.00000     0.00000     0

 14 15  0  0  1  0  0  0  0  0999 V2000
    4.6625   -1.2299    0.0000 Br  0  0  0  0  0  0  0  0  0
    3.9480   -0.8174    0.0000 C   0  0  0  0  0  0  0  0  0
    3.2335   -1.2299    0.0000 C   0  0  0  0  0  0  0  0  0
    2.5190   -0.8174    0.0000 C   0  0  0  0  0  0  0  0  0
    2.5190    0.0076    0.0000 C   0  0  0  0  0  0  0  0  0
    1.7344    0.2625    0.0000 N   0  0  0  0  0  0  0  0  0
    1.2495   -0.4049    0.0000 C   0  0  0  0  0  0  0  0  0
    1.7344   -1.0724    0.0000 C   0  0  0  0  0  0  0  0  0
    1.4795    1.0471    0.0000 C   0  0  0  0  0  0  0  0  0
    2.0315    1.6602    0.0000 C   0  0  0  0  0  0  0  0  0
    1.7766    2.4449    0.0000 N   0  0  0  0  0  0  0  0  0
    2.8385    1.4887    0.0000 C   0  0  0  0  0  0  0  0  0
    3.2335    0.4201    0.0000 C   0  0  0  0  0  0  0  0  0
    3.9480    0.0076    0.0000 C   0  0  0  0  0  0  0  0  0
  1  2  1  0  0  0  0
  2  3  4  0  0  0  0
  2 14  4  0  0  0  0
  3  4  4  0  0  0  0
  4  5  4  0  0  0  0
  4  8  4  0  0  0  0
  5  6  4  0  0  0  0
  5 13  4  0  0  0  0
  6  7  4  0  0  0  0
  6  9  1  0  0  0  0
  7  8  4  0  0  0  0
  9 10  1  0  0  0  0
 10 11  1  0  0  0  0
 10 12  1  0  0  0  0
 13 14  4  0  0  0  0
M  END
>  <Name_Molregno>
151714

>  <5-HT2A>
6.8

>  <5-HT2C>
8.4

$$$$
151715
  Marvin  02231216192D 0   1.00000     0.00000     0

 14 15  0  0  1  0  0  0  0  0999 V2000
    4.6625   -1.2299    0.0000 F   0  0  0  0  0  0  0  0  0
    3.9480   -0.8174    0.0000 C   0  0  0  0  0  0  0  0  0
    3.2335   -1.2299    0.0000 C   0  0  0  0  0  0  0  0  0
    2.5190   -0.8174    0.0000 C   0  0  0  0  0  0  0  0  0
    2.5190    0.0076    0.0000 C   0  0  0  0  0  0  0  0  0
    1.7344    0.2625    0.0000 N   0  0  0  0  0  0  0  0  0
    1.2495   -0.4049    0.0000 C   0  0  0  0  0  0  0  0  0
    1.7344   -1.0724    0.0000 C   0  0  0  0  0  0  0  0  0
    1.4795    1.0471    0.0000 C   0  0  0  0  0  0  0  0  0
    2.0315    1.6602    0.0000 C   0  0  0  0  0  0  0  0  0
    1.7766    2.4449    0.0000 N   0  0  0  0  0  0  0  0  0
    2.8385    1.4887    0.0000 C   0  0  0  0  0  0  0  0  0
    3.2335    0.4201    0.0000 C   0  0  0  0  0  0  0  0  0
    3.9480    0.0076    0.0000 C   0  0  0  0  0  0  0  0  0
  1  2  1  0  0  0  0
  2  3  4  0  0  0  0
  2 14  4  0  0  0  0
  3  4  4  0  0  0  0
  4  5  4  0  0  0  0
  4  8  4  0  0  0  0
  5  6  4  0  0  0  0
  5 13  4  0  0  0  0
  6  7  4  0  0  0  0
  6  9  1  0  0  0  0
  7  8  4  0  0  0  0
  9 10  1  0  0  0  0
 10 11  1  0  0  0  0
 10 12  1  0  0  0  0
 13 14  4  0  0  0  0
M  END
>  <Name_Molregno>
151715

>  <5-HT2A>
6.8

>  <5-HT2C>
8.2

$$$$
151754
  Marvin  02231216192D 0   1.00000     0.00000     0

 14 15  0  0  1  0  0  0  0  0999 V2000
    0.1624   -1.0405    0.0000 F   0  0  0  0  0  0  0  0  0
   -0.5521   -0.6280    0.0000 C   0  0  0  0  0  0  0  0  0
   -1.2666   -1.0405    0.0000 C   0  0  0  0  0  0  0  0  0
   -1.9811   -0.6280    0.0000 C   0  0  0  0  0  0  0  0  0
   -2.7657   -0.8829    0.0000 N   0  0  0  0  0  0  0  0  0
   -3.2506   -0.2155    0.0000 C   0  0  0  0  0  0  0  0  0
   -2.7657    0.4520    0.0000 C   0  0  0  0  0  0  0  0  0
   -1.9811    0.1970    0.0000 C   0  0  0  0  0  0  0  0  0
   -1.2666    0.6095    0.0000 C   0  0  0  0  0  0  0  0  0
   -0.5521    0.1970    0.0000 C   0  0  0  0  0  0  0  0  0
   -3.0206   -1.6675    0.0000 C   0  0  0  0  0  0  0  0  0
   -3.8276   -1.8391    0.0000 C   0  0  0  0  0  0  0  0  0
   -4.0825   -2.6237    0.0000 N   0  0  0  0  0  0  0  0  0
   -4.3796   -1.2260    0.0000 C   0  0  0  0  0  0  0  0  0
  1  2  1  0  0  0  0
  2  3  4  0  0  0  0
  2 10  4  0  0  0  0
  3  4  4  0  0  0  0
  4  5  4  0  0  0  0
  4  8  4  0  0  0  0
  5  6  4  0  0  0  0
  5 11  1  0  0  0  0
  6  7  4  0  0  0  0
  7  8  4  0  0  0  0
  8  9  4  0  0  0  0
  9 10  4  0  0  0  0
 11 12  1  0  0  0  0
 12 13  1  0  0  0  0
 12 14  1  0  0  0  0
M  END
>  <Name_Molregno>
151754

>  <5-HT2A>
6.6

>  <5-HT2C>
8.4

$$$$
152028
  Marvin  02231216192D 0   1.00000     0.00000     0

 14 15  0  0  1  0  0  0  0  0999 V2000
    0.0282   -0.1139    0.0000 N   0  0  0  0  0  0  0  0  0
    0.8128    0.1410    0.0000 C   0  0  0  0  0  0  0  0  0
    0.8128    0.9660    0.0000 C   0  0  0  0  0  0  0  0  0
    1.5273    1.3785    0.0000 C   0  0  0  0  0  0  0  0  0
    2.2418    0.9660    0.0000 C   0  0  0  0  0  0  0  0  0
    2.2418    0.1410    0.0000 C   0  0  0  0  0  0  0  0  0
    1.5273   -0.2715    0.0000 C   0  0  0  0  0  0  0  0  0
    2.9563    1.3785    0.0000 C   0  0  0  0  0  0  0  0  0
    0.0282    1.2209    0.0000 C   0  0  0  0  0  0  0  0  0
   -0.4567    0.5535    0.0000 C   0  0  0  0  0  0  0  0  0
   -0.2267   -0.8986    0.0000 C   0  0  0  0  0  0  0  0  0
   -1.0337   -1.0701    0.0000 C   0  0  0  0  0  0  0  0  0
   -1.2886   -1.8547    0.0000 N   0  0  0  0  0  0  0  0  0
   -1.5857   -0.4570    0.0000 C   0  0  0  0  0  0  0  0  0
  1  2  4  0  0  0  0
  1 10  4  0  0  0  0
  1 11  1  0  0  0  0
  2  3  4  0  0  0  0
  2  7  4  0  0  0  0
  3  4  4  0  0  0  0
  3  9  4  0  0  0  0
  4  5  4  0  0  0  0
  5  6  4  0  0  0  0
  5  8  1  0  0  0  0
  6  7  4  0  0  0  0
  9 10  4  0  0  0  0
 11 12  1  0  0  0  0
 12 13  1  0  0  0  0
 12 14  1  0  0  0  0
M  END
>  <Name_Molregno>
152028

>  <5-HT2A>
6.1

>  <5-HT2C>
7.2

$$$$
152029
  Marvin  02231216192D 0   1.00000     0.00000     0

 14 15  0  0  1  0  0  0  0  0999 V2000
    4.6625   -1.2299    0.0000 Cl  0  0  0  0  0  0  0  0  0
    3.9480   -0.8174    0.0000 C   0  0  0  0  0  0  0  0  0
    3.2335   -1.2299    0.0000 C   0  0  0  0  0  0  0  0  0
    2.5190   -0.8174    0.0000 C   0  0  0  0  0  0  0  0  0
    2.5190    0.0076    0.0000 C   0  0  0  0  0  0  0  0  0
    1.7344    0.2625    0.0000 N   0  0  0  0  0  0  0  0  0
    1.2495   -0.4049    0.0000 C   0  0  0  0  0  0  0  0  0
    1.7344   -1.0724    0.0000 C   0  0  0  0  0  0  0  0  0
    1.4795    1.0471    0.0000 C   0  0  0  0  0  0  0  0  0
    2.0315    1.6602    0.0000 C   0  0  0  0  0  0  0  0  0
    1.7766    2.4449    0.0000 N   0  0  0  0  0  0  0  0  0
    2.8385    1.4887    0.0000 C   0  0  0  0  0  0  0  0  0
    3.2335    0.4201    0.0000 C   0  0  0  0  0  0  0  0  0
    3.9480    0.0076    0.0000 C   0  0  0  0  0  0  0  0  0
  1  2  1  0  0  0  0
  2  3  4  0  0  0  0
  2 14  4  0  0  0  0
  3  4  4  0  0  0  0
  4  5  4  0  0  0  0
  4  8  4  0  0  0  0
  5  6  4  0  0  0  0
  5 13  4  0  0  0  0
  6  7  4  0  0  0  0
  6  9  1  0  0  0  0
  7  8  4  0  0  0  0
  9 10  1  0  0  0  0
 10 11  1  0  0  0  0
 10 12  1  0  0  0  0
 13 14  4  0  0  0  0
M  END
>  <Name_Molregno>
152029

>  <5-HT2A>
6.7

>  <5-HT2C>
8.1

$$$$
152134
  Marvin  02231216192D 0   1.00000     0.00000     0

 21 23  0  0  1  0  0  0  0  0999 V2000
    3.1457   -1.4715    0.0000 O   0  0  0  0  0  0  0  0  0
    2.5326   -0.9195    0.0000 C   0  0  0  0  0  0  0  0  0
    2.5326   -0.0945    0.0000 C   0  0  0  0  0  0  0  0  0
    1.8182    0.3180    0.0000 C   0  0  0  0  0  0  0  0  0
    1.1037   -0.0945    0.0000 C   0  0  0  0  0  0  0  0  0
    1.1037   -0.9195    0.0000 C   0  0  0  0  0  0  0  0  0
    1.8182   -1.3320    0.0000 C   0  0  0  0  0  0  0  0  0
    1.9897   -2.1389    0.0000 C   0  0  0  0  0  0  0  0  0
    2.8102   -2.2252    0.0000 C   0  0  0  0  0  0  0  0  0
    1.8182    1.1430    0.0000 C   0  0  0  0  0  0  0  0  0
    1.1037    1.5555    0.0000 C   0  0  0  0  0  0  0  0  0
    2.5326    1.5555    0.0000 C   0  0  0  0  0  0  0  0  0
    2.5326    2.3805    0.0000 N   0  0  0  0  0  0  0  0  0
    1.8182    2.7930    0.0000 C   0  0  0  0  0  0  0  0  0
    1.8182    3.6180    0.0000 C   0  0  0  0  0  0  0  0  0
    1.1037    4.0305    0.0000 C   0  0  0  0  0  0  0  0  0
    3.2471    2.7930    0.0000 C   0  0  0  0  0  0  0  0  0
    3.2471    3.6180    0.0000 C   0  0  0  0  0  0  0  0  0
    3.9616    4.0305    0.0000 C   0  0  0  0  0  0  0  0  0
    3.2471    1.1430    0.0000 C   0  0  0  0  0  0  0  0  0
    3.2471    0.3180    0.0000 C   0  0  0  0  0  0  0  0  0
  1  2  4  0  0  0  0
  1  9  4  0  0  0  0
  2  3  4  0  0  0  0
  2  7  4  0  0  0  0
  3  4  4  0  0  0  0
  3 21  1  0  0  0  0
  4  5  4  0  0  0  0
  4 10  1  0  0  0  0
  5  6  4  0  0  0  0
  6  7  4  0  0  0  0
  7  8  4  0  0  0  0
  8  9  4  0  0  0  0
 10 11  1  0  0  0  0
 10 12  1  0  0  0  0
 12 13  1  0  0  0  0
 12 20  1  0  0  0  0
 13 14  1  0  0  0  0
 13 17  1  0  0  0  0
 14 15  1  0  0  0  0
 15 16  1  0  0  0  0
 17 18  1  0  0  0  0
 18 19  1  0  0  0  0
 20 21  1  0  0  0  0
M  END
>  <Name_Molregno>
152134

>  <5-HT1A>
6.92

>  <5-HT2A>
7.15

>  <5-HT2C>
7.15

>  <DOPAMINE D3>
7.57

>  <DOPAMINE D4>
7.26

$$$$
152295
  Marvin  02231216192D 0   1.00000     0.00000     0

 19 22  0  0  1  0  0  0  0  0999 V2000
   -2.7246    2.1114    0.0000 O   0  0  0  0  0  0  0  0  0
   -2.5530    1.3044    0.0000 C   0  0  0  0  0  0  0  0  0
   -1.8386    0.8919    0.0000 C   0  0  0  0  0  0  0  0  0
   -1.1241    1.3044    0.0000 C   0  0  0  0  0  0  0  0  0
   -0.4096    0.8919    0.0000 C   0  0  0  0  0  0  0  0  0
    0.2035    1.4439    0.0000 N   0  0  0  0  0  0  0  0  0
   -0.1321    2.1976    0.0000 C   0  0  0  0  0  0  0  0  0
   -0.9526    2.1114    0.0000 C   0  0  0  0  0  0  0  0  0
    1.0104    1.2724    0.0000 C   0  0  0  0  0  0  0  0  0
    1.5625    1.8855    0.0000 C   0  0  0  0  0  0  0  0  0
    2.3694    1.7140    0.0000 C   0  0  0  0  0  0  0  0  0
   -0.4096    0.0669    0.0000 C   0  0  0  0  0  0  0  0  0
   -1.1241   -0.3456    0.0000 C   0  0  0  0  0  0  0  0  0
   -1.8386    0.0669    0.0000 C   0  0  0  0  0  0  0  0  0
   -2.5530   -0.3456    0.0000 C   0  0  0  0  0  0  0  0  0
   -3.2675    0.0669    0.0000 C   0  0  0  0  0  0  0  0  0
   -3.2675    0.8919    0.0000 C   0  0  0  0  0  0  0  0  0
   -3.8806    1.4439    0.0000 C   0  0  0  0  0  0  0  0  0
   -3.5450    2.1976    0.0000 C   0  0  0  0  0  0  0  0  0
  1  2  4  0  0  0  0
  1 19  4  0  0  0  0
  2  3  4  0  0  0  0
  2 17  4  0  0  0  0
  3  4  1  0  0  0  0
  3 14  4  0  0  0  0
  4  5  1  0  0  0  0
  4  8  1  0  0  0  0
  5  6  1  0  0  0  0
  5 12  1  0  0  0  0
  6  7  1  0  0  0  0
  6  9  1  0  0  0  0
  7  8  1  0  0  0  0
  9 10  1  0  0  0  0
 10 11  1  0  0  0  0
 12 13  1  0  0  0  0
 13 14  1  0  0  0  0
 14 15  4  0  0  0  0
 15 16  4  0  0  0  0
 16 17  4  0  0  0  0
 17 18  4  0  0  0  0
 18 19  4  0  0  0  0
M  END
>  <Name_Molregno>
152295

>  <5-HT1A>
8.41

>  <5-HT2A>
6.84

>  <5-HT2C>
6.84

>  <DOPAMINE D3>
6.49

>  <DOPAMINE D4>
5.39

$$$$
153628
  Marvin  02231216192D 0   1.00000     0.00000     0

 30 33  0  0  1  0  0  0  0  0999 V2000
   -0.0639   -1.5933    0.0000 F   0  0  0  0  0  0  0  0  0
    0.7611   -1.5933    0.0000 C   0  0  0  0  0  0  0  0  0
    1.1736   -0.8788    0.0000 C   0  0  0  0  0  0  0  0  0
    1.9986   -0.8788    0.0000 C   0  0  0  0  0  0  0  0  0
    2.4111   -1.5933    0.0000 C   0  0  0  0  0  0  0  0  0
    1.9986   -2.3078    0.0000 C   0  0  0  0  0  0  0  0  0
    1.1736   -2.3078    0.0000 C   0  0  0  0  0  0  0  0  0
    3.2361   -1.5933    0.0000 C   0  0  0  0  0  0  0  0  0
    3.6486   -2.3078    0.0000 O   0  0  0  0  0  0  0  0  0
    3.6486   -0.8788    0.0000 C   0  0  0  0  0  0  0  0  0
    4.4736   -0.8788    0.0000 C   0  0  0  0  0  0  0  0  0
    4.8861   -0.1644    0.0000 C   0  0  0  0  0  0  0  0  0
    5.7111   -0.1644    0.0000 N   0  0  0  0  0  0  0  0  0
    6.1236    0.5501    0.0000 C   0  0  0  0  0  0  0  0  0
    6.9486    0.5501    0.0000 C   0  0  0  0  0  0  0  0  0
    7.3611   -0.1644    0.0000 N   0  0  0  0  0  0  0  0  0
    6.9486   -0.8788    0.0000 C   0  0  0  0  0  0  0  0  0
    6.1236   -0.8788    0.0000 C   0  0  0  0  0  0  0  0  0
    8.1861   -0.1644    0.0000 C   0  0  0  0  0  0  0  0  0
    8.5986    0.5501    0.0000 C   0  0  0  0  0  0  0  0  0
    9.4236    0.5501    0.0000 C   0  0  0  0  0  0  0  0  0
    9.9085   -0.1173    0.0000 C   0  0  0  0  0  0  0  0  0
   10.6931    0.1376    0.0000 C   0  0  0  0  0  0  0  0  0
   10.6931    0.9626    0.0000 C   0  0  0  0  0  0  0  0  0
   11.4076    1.3751    0.0000 C   0  0  0  0  0  0  0  0  0
   12.1221    0.9626    0.0000 C   0  0  0  0  0  0  0  0  0
   12.1221    0.1376    0.0000 C   0  0  0  0  0  0  0  0  0
   11.4076   -0.2749    0.0000 C   0  0  0  0  0  0  0  0  0
    9.9085    1.2176    0.0000 C   0  0  0  0  0  0  0  0  0
    9.6536    2.0022    0.0000 O   0  0  0  0  0  0  0  0  0
  1  2  1  0  0  0  0
  2  3  4  0  0  0  0
  2  7  4  0  0  0  0
  3  4  4  0  0  0  0
  4  5  4  0  0  0  0
  5  6  4  0  0  0  0
  5  8  1  0  0  0  0
  6  7  4  0  0  0  0
  8  9  2  0  0  0  0
  8 10  1  0  0  0  0
 10 11  1  0  0  0  0
 11 12  1  0  0  0  0
 12 13  1  0  0  0  0
 13 14  1  0  0  0  0
 13 18  1  0  0  0  0
 14 15  1  0  0  0  0
 15 16  1  0  0  0  0
 16 17  1  0  0  0  0
 16 19  1  0  0  0  0
 17 18  1  0  0  0  0
 19 20  1  0  0  0  0
 20 21  1  0  0  0  0
 21 22  1  0  0  0  0
 21 29  1  0  0  0  0
 22 23  1  0  0  0  0
 23 24  4  0  0  0  0
 23 28  4  0  0  0  0
 24 25  4  0  0  0  0
 24 29  1  0  0  0  0
 25 26  4  0  0  0  0
 26 27  4  0  0  0  0
 27 28  4  0  0  0  0
 29 30  2  0  0  0  0
M  END
>  <Name_Molregno>
153628

>  <5-HT2A>
7.17

$$$$
155229
  Marvin  02231216192D 0   1.00000     0.00000     0

 27 30  0  0  1  0  0  0  0  0999 V2000
    1.6170   -0.3502    0.0000 S   0  0  0  0  0  0  0  0  0
    2.4420   -0.3502    0.0000 O   0  0  0  0  0  0  0  0  0
    0.7920   -0.3502    0.0000 O   0  0  0  0  0  0  0  0  0
    1.6170   -1.1752    0.0000 N   0  0  0  0  0  0  0  0  0
    2.2844   -1.6602    0.0000 C   0  0  0  0  0  0  0  0  0
    2.0295   -2.4448    0.0000 C   0  0  0  0  0  0  0  0  0
    1.2045   -2.4448    0.0000 C   0  0  0  0  0  0  0  0  0
    0.9495   -1.6602    0.0000 C   0  0  0  0  0  0  0  0  0
    0.1649   -1.4052    0.0000 C   0  0  0  0  0  0  0  0  0
   -0.4482   -1.9572    0.0000 C   0  0  0  0  0  0  0  0  0
   -1.2328   -1.7023    0.0000 N   0  0  0  0  0  0  0  0  0
   -1.8459   -2.2543    0.0000 C   0  0  0  0  0  0  0  0  0
   -2.6305   -1.9994    0.0000 C   0  0  0  0  0  0  0  0  0
   -2.8021   -1.1924    0.0000 C   0  0  0  0  0  0  0  0  0
   -2.1890   -0.6404    0.0000 C   0  0  0  0  0  0  0  0  0
   -1.4044   -0.8953    0.0000 C   0  0  0  0  0  0  0  0  0
   -3.5867   -0.9375    0.0000 C   0  0  0  0  0  0  0  0  0
    1.6170    0.4748    0.0000 C   0  0  0  0  0  0  0  0  0
    2.3314    0.8873    0.0000 C   0  0  0  0  0  0  0  0  0
    2.3314    1.7123    0.0000 C   0  0  0  0  0  0  0  0  0
    1.6170    2.1248    0.0000 C   0  0  0  0  0  0  0  0  0
    0.9025    1.7123    0.0000 C   0  0  0  0  0  0  0  0  0
    0.9025    0.8873    0.0000 C   0  0  0  0  0  0  0  0  0
    3.0459    2.1248    0.0000 C   0  0  0  0  0  0  0  0  0
    3.7604    1.7123    0.0000 C   0  0  0  0  0  0  0  0  0
    3.7604    0.8873    0.0000 C   0  0  0  0  0  0  0  0  0
    3.0459    0.4748    0.0000 C   0  0  0  0  0  0  0  0  0
  1  2  2  0  0  0  0
  1  3  2  0  0  0  0
  1  4  1  0  0  0  0
  1 18  1  0  0  0  0
  4  5  1  0  0  0  0
  4  8  1  0  0  0  0
  5  6  1  0  0  0  0
  6  7  1  0  0  0  0
  7  8  1  0  0  0  0
  8  9  1  0  0  0  0
  9 10  1  0  0  0  0
 10 11  1  0  0  0  0
 11 12  1  0  0  0  0
 11 16  1  0  0  0  0
 12 13  1  0  0  0  0
 13 14  1  0  0  0  0
 14 15  1  0  0  0  0
 14 17  1  0  0  0  0
 15 16  1  0  0  0  0
 18 19  4  0  0  0  0
 18 23  4  0  0  0  0
 19 20  4  0  0  0  0
 19 27  4  0  0  0  0
 20 21  4  0  0  0  0
 20 24  4  0  0  0  0
 21 22  4  0  0  0  0
 22 23  4  0  0  0  0
 24 25  4  0  0  0  0
 25 26  4  0  0  0  0
 26 27  4  0  0  0  0
M  END
>  <Name_Molregno>
155229

>  <5-HT2A>
5.8

>  <5-HT7>
7.2

$$$$
157077
  Marvin  02231216192D 0   1.00000     0.00000     0

 32 36  0  0  0  0  0  0  0  0999 V2000
   -0.2324    0.2724    0.0000 S   0  0  0  0  0  0  0  0  0
    0.1801    0.9869    0.0000 O   0  0  0  0  0  0  0  0  0
   -0.6449   -0.4420    0.0000 O   0  0  0  0  0  0  0  0  0
    0.4820   -0.1401    0.0000 N   0  0  0  0  0  0  0  0  0
    1.1965    0.2724    0.0000 C   0  0  0  0  0  0  0  0  0
    1.9110   -0.1401    0.0000 C   0  0  0  0  0  0  0  0  0
    2.6254    0.2724    0.0000 C   0  0  0  0  0  0  0  0  0
    2.6254    1.0974    0.0000 C   0  0  0  0  0  0  0  0  0
    3.3399    1.5099    0.0000 N   0  0  0  0  0  0  0  0  0
    4.0544    1.0974    0.0000 C   0  0  0  0  0  0  0  0  0
    4.0544    0.2724    0.0000 C   0  0  0  0  0  0  0  0  0
    3.3399   -0.1401    0.0000 C   0  0  0  0  0  0  0  0  0
    3.3399   -0.9651    0.0000 N   0  0  0  0  0  0  0  0  0
    4.0544   -1.3776    0.0000 C   0  0  0  0  0  0  0  0  0
    4.0544   -2.2026    0.0000 C   0  0  0  0  0  0  0  0  0
    3.3399   -2.6151    0.0000 N   0  0  0  0  0  0  0  0  0
    2.6254   -2.2026    0.0000 C   0  0  0  0  0  0  0  0  0
    2.6254   -1.3776    0.0000 C   0  0  0  0  0  0  0  0  0
    1.9110    1.5099    0.0000 C   0  0  0  0  0  0  0  0  0
    1.1965    1.0974    0.0000 C   0  0  0  0  0  0  0  0  0
   -0.9469    0.6849    0.0000 C   0  0  0  0  0  0  0  0  0
   -1.6614    0.2724    0.0000 C   0  0  0  0  0  0  0  0  0
   -2.3759    0.6849    0.0000 C   0  0  0  0  0  0  0  0  0
   -2.3759    1.5099    0.0000 C   0  0  0  0  0  0  0  0  0
   -1.6614    1.9224    0.0000 C   0  0  0  0  0  0  0  0  0
   -0.9469    1.5099    0.0000 C   0  0  0  0  0  0  0  0  0
   -3.0903    1.9224    0.0000 C   0  0  0  0  0  0  0  0  0
   -3.8048    1.5099    0.0000 C   0  0  0  0  0  0  0  0  0
   -4.5193    1.9224    0.0000 C   0  0  0  0  0  0  0  0  0
   -4.5193    2.7474    0.0000 C   0  0  0  0  0  0  0  0  0
   -3.8048    3.1599    0.0000 C   0  0  0  0  0  0  0  0  0
   -3.0903    2.7474    0.0000 C   0  0  0  0  0  0  0  0  0
  1  2  2  0  0  0  0
  1  3  2  0  0  0  0
  1  4  1  0  0  0  0
  1 21  1  0  0  0  0
  4  5  1  0  0  0  0
  5  6  4  0  0  0  0
  5 20  4  0  0  0  0
  6  7  4  0  0  0  0
  7  8  4  0  0  0  0
  7 12  4  0  0  0  0
  8  9  4  0  0  0  0
  8 19  4  0  0  0  0
  9 10  4  0  0  0  0
 10 11  4  0  0  0  0
 11 12  4  0  0  0  0
 12 13  1  0  0  0  0
 13 14  1  0  0  0  0
 13 18  1  0  0  0  0
 14 15  1  0  0  0  0
 15 16  1  0  0  0  0
 16 17  1  0  0  0  0
 17 18  1  0  0  0  0
 19 20  4  0  0  0  0
 21 22  4  0  0  0  0
 21 26  4  0  0  0  0
 22 23  4  0  0  0  0
 23 24  4  0  0  0  0
 24 25  4  0  0  0  0
 24 27  1  0  0  0  0
 25 26  4  0  0  0  0
 27 28  4  0  0  0  0
 27 32  4  0  0  0  0
 28 29  4  0  0  0  0
 29 30  4  0  0  0  0
 30 31  4  0  0  0  0
 31 32  4  0  0  0  0
M  STY  1   1 DAT
M  SAL   1  1   9
M  SDT   1 MRV_IMPLICIT_H                                        
M  SDD   1     0.0000    0.0000    DR    ALL  0       0  
M  SED   1 IMPL_H1
M  END
>  <Name_Molregno>
157077

>  <5-HT1A>
6.2

>  <5-HT1B>
6.5

>  <5-HT1D>
6.8

>  <5-HT2A>
6.3

>  <5-HT6>
9.3

>  <5-HT7>
5

>  <DOPAMINE D2>
5.3

>  <DOPAMINE D3>
5.5

$$$$
157459
  Marvin  02231216192D 0   1.00000     0.00000     0

 32 36  0  0  0  0  0  0  0  0999 V2000
    0.5977    1.2497    0.0000 Cl  0  0  0  0  0  0  0  0  0
    1.0102    0.5352    0.0000 C   0  0  0  0  0  0  0  0  0
    1.8352    0.5352    0.0000 C   0  0  0  0  0  0  0  0  0
    2.2477   -0.1792    0.0000 C   0  0  0  0  0  0  0  0  0
    1.8352   -0.8937    0.0000 C   0  0  0  0  0  0  0  0  0
    2.3873   -1.5068    0.0000 S   0  0  0  0  0  0  0  0  0
    3.1409   -1.1712    0.0000 C   0  0  0  0  0  0  0  0  0
    3.8554   -1.5837    0.0000 S   0  0  0  0  0  0  0  0  0
    3.4429   -2.2982    0.0000 O   0  0  0  0  0  0  0  0  0
    4.2679   -0.8693    0.0000 O   0  0  0  0  0  0  0  0  0
    4.5699   -1.9962    0.0000 N   0  0  0  0  0  0  0  0  0
    5.2843   -1.5837    0.0000 C   0  0  0  0  0  0  0  0  0
    5.9988   -1.9962    0.0000 C   0  0  0  0  0  0  0  0  0
    6.7133   -1.5837    0.0000 C   0  0  0  0  0  0  0  0  0
    6.7133   -0.7587    0.0000 C   0  0  0  0  0  0  0  0  0
    7.4278   -0.3462    0.0000 N   0  0  0  0  0  0  0  0  0
    8.1422   -0.7587    0.0000 C   0  0  0  0  0  0  0  0  0
    8.1422   -1.5837    0.0000 C   0  0  0  0  0  0  0  0  0
    7.4278   -1.9962    0.0000 C   0  0  0  0  0  0  0  0  0
    7.4278   -2.8212    0.0000 N   0  0  0  0  0  0  0  0  0
    8.1422   -3.2337    0.0000 C   0  0  0  0  0  0  0  0  0
    8.1422   -4.0587    0.0000 C   0  0  0  0  0  0  0  0  0
    7.4278   -4.4712    0.0000 N   0  0  0  0  0  0  0  0  0
    6.7133   -4.0587    0.0000 C   0  0  0  0  0  0  0  0  0
    6.7133   -3.2337    0.0000 C   0  0  0  0  0  0  0  0  0
    8.8567   -0.3462    0.0000 C   0  0  0  0  0  0  0  0  0
    5.9988   -0.3462    0.0000 C   0  0  0  0  0  0  0  0  0
    5.2843   -0.7587    0.0000 C   0  0  0  0  0  0  0  0  0
    3.0547   -0.3508    0.0000 C   0  0  0  0  0  0  0  0  0
    3.6678    0.2013    0.0000 C   0  0  0  0  0  0  0  0  0
    1.0102   -0.8937    0.0000 C   0  0  0  0  0  0  0  0  0
    0.5977   -0.1792    0.0000 C   0  0  0  0  0  0  0  0  0
  1  2  1  0  0  0  0
  2  3  4  0  0  0  0
  2 32  4  0  0  0  0
  3  4  4  0  0  0  0
  4  5  4  0  0  0  0
  4 29  4  0  0  0  0
  5  6  4  0  0  0  0
  5 31  4  0  0  0  0
  6  7  4  0  0  0  0
  7  8  1  0  0  0  0
  7 29  4  0  0  0  0
  8  9  2  0  0  0  0
  8 10  2  0  0  0  0
  8 11  1  0  0  0  0
 11 12  1  0  0  0  0
 12 13  4  0  0  0  0
 12 28  4  0  0  0  0
 13 14  4  0  0  0  0
 14 15  4  0  0  0  0
 14 19  4  0  0  0  0
 15 16  4  0  0  0  0
 15 27  4  0  0  0  0
 16 17  4  0  0  0  0
 17 18  4  0  0  0  0
 17 26  1  0  0  0  0
 18 19  4  0  0  0  0
 19 20  1  0  0  0  0
 20 21  1  0  0  0  0
 20 25  1  0  0  0  0
 21 22  1  0  0  0  0
 22 23  1  0  0  0  0
 23 24  1  0  0  0  0
 24 25  1  0  0  0  0
 27 28  4  0  0  0  0
 29 30  1  0  0  0  0
 31 32  4  0  0  0  0
M  STY  1   1 DAT
M  SAL   1  1  16
M  SDT   1 MRV_IMPLICIT_H                                        
M  SDD   1     0.0000    0.0000    DR    ALL  0       0  
M  SED   1 IMPL_H1
M  END
>  <Name_Molregno>
157459

>  <5-HT1A>
6.1

>  <5-HT1B>
5.9

>  <5-HT1D>
6.5

>  <5-HT2A>
5.7

>  <5-HT2C>
5.6

>  <5-HT6>
8.9

>  <5-HT7>
5.3

>  <DOPAMINE D2>
5.2

>  <DOPAMINE D3>
6

$$$$
157806
  Marvin  02231216192D 0   1.00000     0.00000     0

 32 36  0  0  0  0  0  0  0  0999 V2000
    0.6766    1.5468    0.0000 Cl  0  0  0  0  0  0  0  0  0
    1.0891    0.8324    0.0000 C   0  0  0  0  0  0  0  0  0
    1.9141    0.8324    0.0000 C   0  0  0  0  0  0  0  0  0
    2.3266    0.1179    0.0000 C   0  0  0  0  0  0  0  0  0
    1.9141   -0.5966    0.0000 C   0  0  0  0  0  0  0  0  0
    2.4662   -1.2097    0.0000 S   0  0  0  0  0  0  0  0  0
    3.2198   -0.8741    0.0000 C   0  0  0  0  0  0  0  0  0
    3.9343   -1.2866    0.0000 S   0  0  0  0  0  0  0  0  0
    3.5218   -2.0011    0.0000 O   0  0  0  0  0  0  0  0  0
    4.3468   -0.5721    0.0000 O   0  0  0  0  0  0  0  0  0
    4.6488   -1.6991    0.0000 N   0  0  0  0  0  0  0  0  0
    5.3633   -1.2866    0.0000 C   0  0  0  0  0  0  0  0  0
    6.0777   -1.6991    0.0000 C   0  0  0  0  0  0  0  0  0
    6.7922   -1.2866    0.0000 C   0  0  0  0  0  0  0  0  0
    6.7922   -0.4616    0.0000 C   0  0  0  0  0  0  0  0  0
    7.5067   -0.0491    0.0000 N   0  0  0  0  0  0  0  0  0
    8.2211   -0.4616    0.0000 C   0  0  0  0  0  0  0  0  0
    8.2211   -1.2866    0.0000 C   0  0  0  0  0  0  0  0  0
    7.5067   -1.6991    0.0000 C   0  0  0  0  0  0  0  0  0
    7.5067   -2.5241    0.0000 N   0  0  0  0  0  0  0  0  0
    8.2211   -2.9366    0.0000 C   0  0  0  0  0  0  0  0  0
    8.2211   -3.7616    0.0000 C   0  0  0  0  0  0  0  0  0
    7.5067   -4.1741    0.0000 N   0  0  0  0  0  0  0  0  0
    6.7922   -3.7616    0.0000 C   0  0  0  0  0  0  0  0  0
    6.7922   -2.9366    0.0000 C   0  0  0  0  0  0  0  0  0
    7.5067   -4.9991    0.0000 C   0  0  0  0  0  0  0  0  0
    6.0777   -0.0491    0.0000 C   0  0  0  0  0  0  0  0  0
    5.3633   -0.4616    0.0000 C   0  0  0  0  0  0  0  0  0
    3.1336   -0.0536    0.0000 C   0  0  0  0  0  0  0  0  0
    3.7467    0.4984    0.0000 C   0  0  0  0  0  0  0  0  0
    1.0891   -0.5966    0.0000 C   0  0  0  0  0  0  0  0  0
    0.6766    0.1179    0.0000 C   0  0  0  0  0  0  0  0  0
  1  2  1  0  0  0  0
  2  3  4  0  0  0  0
  2 32  4  0  0  0  0
  3  4  4  0  0  0  0
  4  5  4  0  0  0  0
  4 29  4  0  0  0  0
  5  6  4  0  0  0  0
  5 31  4  0  0  0  0
  6  7  4  0  0  0  0
  7  8  1  0  0  0  0
  7 29  4  0  0  0  0
  8  9  2  0  0  0  0
  8 10  2  0  0  0  0
  8 11  1  0  0  0  0
 11 12  1  0  0  0  0
 12 13  4  0  0  0  0
 12 28  4  0  0  0  0
 13 14  4  0  0  0  0
 14 15  4  0  0  0  0
 14 19  4  0  0  0  0
 15 16  4  0  0  0  0
 15 27  4  0  0  0  0
 16 17  4  0  0  0  0
 17 18  4  0  0  0  0
 18 19  4  0  0  0  0
 19 20  1  0  0  0  0
 20 21  1  0  0  0  0
 20 25  1  0  0  0  0
 21 22  1  0  0  0  0
 22 23  1  0  0  0  0
 23 24  1  0  0  0  0
 23 26  1  0  0  0  0
 24 25  1  0  0  0  0
 27 28  4  0  0  0  0
 29 30  1  0  0  0  0
 31 32  4  0  0  0  0
M  STY  1   1 DAT
M  SAL   1  1  16
M  SDT   1 MRV_IMPLICIT_H                                        
M  SDD   1     0.0000    0.0000    DR    ALL  0       0  
M  SED   1 IMPL_H1
M  END
>  <Name_Molregno>
157806

>  <5-HT1A>
6.1

>  <5-HT1B>
6.3

>  <5-HT1D>
6.6

>  <5-HT2A>
6

>  <5-HT2C>
5.3

>  <5-HT6>
9

>  <5-HT7>
5.7

>  <DOPAMINE D2>
5.1

>  <DOPAMINE D3>
5.4

$$$$
157834
  Marvin  02231216192D 0   1.00000     0.00000     0

 31 35  0  0  0  0  0  0  0  0999 V2000
   -0.2147    0.7807    0.0000 Cl  0  0  0  0  0  0  0  0  0
    0.4998    1.1932    0.0000 C   0  0  0  0  0  0  0  0  0
    1.2143    0.7807    0.0000 C   0  0  0  0  0  0  0  0  0
    1.9287    1.1932    0.0000 C   0  0  0  0  0  0  0  0  0
    2.6432    0.7807    0.0000 C   0  0  0  0  0  0  0  0  0
    2.6432   -0.0443    0.0000 C   0  0  0  0  0  0  0  0  0
    3.3577   -0.4568    0.0000 S   0  0  0  0  0  0  0  0  0
    2.9452   -1.1712    0.0000 O   0  0  0  0  0  0  0  0  0
    3.7702    0.2577    0.0000 O   0  0  0  0  0  0  0  0  0
    4.0721   -0.8693    0.0000 N   0  0  0  0  0  0  0  0  0
    4.7866   -0.4568    0.0000 C   0  0  0  0  0  0  0  0  0
    5.5011   -0.8693    0.0000 C   0  0  0  0  0  0  0  0  0
    6.2156   -0.4568    0.0000 C   0  0  0  0  0  0  0  0  0
    6.2156    0.3682    0.0000 C   0  0  0  0  0  0  0  0  0
    6.9300    0.7807    0.0000 N   0  0  0  0  0  0  0  0  0
    7.6445    0.3682    0.0000 C   0  0  0  0  0  0  0  0  0
    7.6445   -0.4568    0.0000 C   0  0  0  0  0  0  0  0  0
    6.9300   -0.8693    0.0000 C   0  0  0  0  0  0  0  0  0
    6.9300   -1.6943    0.0000 N   0  0  0  0  0  0  0  0  0
    7.6445   -2.1068    0.0000 C   0  0  0  0  0  0  0  0  0
    7.6445   -2.9318    0.0000 C   0  0  0  0  0  0  0  0  0
    6.9300   -3.3443    0.0000 N   0  0  0  0  0  0  0  0  0
    6.2156   -2.9318    0.0000 C   0  0  0  0  0  0  0  0  0
    6.2156   -2.1068    0.0000 C   0  0  0  0  0  0  0  0  0
    5.5011    0.7807    0.0000 C   0  0  0  0  0  0  0  0  0
    4.7866    0.3682    0.0000 C   0  0  0  0  0  0  0  0  0
    1.9287   -0.4568    0.0000 C   0  0  0  0  0  0  0  0  0
    1.2143   -0.0443    0.0000 C   0  0  0  0  0  0  0  0  0
    1.9287    2.0182    0.0000 C   0  0  0  0  0  0  0  0  0
    1.2143    2.4307    0.0000 C   0  0  0  0  0  0  0  0  0
    0.4998    2.0182    0.0000 C   0  0  0  0  0  0  0  0  0
  1  2  1  0  0  0  0
  2  3  4  0  0  0  0
  2 31  4  0  0  0  0
  3  4  4  0  0  0  0
  3 28  4  0  0  0  0
  4  5  4  0  0  0  0
  4 29  4  0  0  0  0
  5  6  4  0  0  0  0
  6  7  1  0  0  0  0
  6 27  4  0  0  0  0
  7  8  2  0  0  0  0
  7  9  2  0  0  0  0
  7 10  1  0  0  0  0
 10 11  1  0  0  0  0
 11 12  4  0  0  0  0
 11 26  4  0  0  0  0
 12 13  4  0  0  0  0
 13 14  4  0  0  0  0
 13 18  4  0  0  0  0
 14 15  4  0  0  0  0
 14 25  4  0  0  0  0
 15 16  4  0  0  0  0
 16 17  4  0  0  0  0
 17 18  4  0  0  0  0
 18 19  1  0  0  0  0
 19 20  1  0  0  0  0
 19 24  1  0  0  0  0
 20 21  1  0  0  0  0
 21 22  1  0  0  0  0
 22 23  1  0  0  0  0
 23 24  1  0  0  0  0
 25 26  4  0  0  0  0
 27 28  4  0  0  0  0
 29 30  4  0  0  0  0
 30 31  4  0  0  0  0
M  STY  1   1 DAT
M  SAL   1  1  15
M  SDT   1 MRV_IMPLICIT_H                                        
M  SDD   1     0.0000    0.0000    DR    ALL  0       0  
M  SED   1 IMPL_H1
M  END
>  <Name_Molregno>
157834

>  <5-HT1A>
6.8

>  <5-HT1B>
6.2

>  <5-HT1D>
6.7

>  <5-HT2A>
6

>  <5-HT2C>
5.6

>  <5-HT6>
9

>  <5-HT7>
5.6

>  <DOPAMINE D2>
5.3

>  <DOPAMINE D3>
5.6

$$$$
157908
  Marvin  02231216192D 0   1.00000     0.00000     0

 30 33  0  0  0  0  0  0  0  0999 V2000
   -1.7605   -0.6940    0.0000 S   0  0  0  0  0  0  0  0  0
   -1.3480    0.0205    0.0000 O   0  0  0  0  0  0  0  0  0
   -2.1730   -1.4085    0.0000 O   0  0  0  0  0  0  0  0  0
   -1.0461   -1.1065    0.0000 N   0  0  0  0  0  0  0  0  0
   -0.3316   -0.6940    0.0000 C   0  0  0  0  0  0  0  0  0
    0.3829   -1.1065    0.0000 C   0  0  0  0  0  0  0  0  0
    1.0973   -0.6940    0.0000 C   0  0  0  0  0  0  0  0  0
    1.0973    0.1310    0.0000 C   0  0  0  0  0  0  0  0  0
    1.8118    0.5435    0.0000 N   0  0  0  0  0  0  0  0  0
    2.5263    0.1310    0.0000 C   0  0  0  0  0  0  0  0  0
    2.5263   -0.6940    0.0000 C   0  0  0  0  0  0  0  0  0
    1.8118   -1.1065    0.0000 C   0  0  0  0  0  0  0  0  0
    1.8118   -1.9315    0.0000 N   0  0  0  0  0  0  0  0  0
    2.5263   -2.3440    0.0000 C   0  0  0  0  0  0  0  0  0
    2.5263   -3.1690    0.0000 C   0  0  0  0  0  0  0  0  0
    1.8118   -3.5815    0.0000 N   0  0  0  0  0  0  0  0  0
    1.0973   -3.1690    0.0000 C   0  0  0  0  0  0  0  0  0
    1.0973   -2.3440    0.0000 C   0  0  0  0  0  0  0  0  0
    0.3829    0.5435    0.0000 C   0  0  0  0  0  0  0  0  0
   -0.3316    0.1310    0.0000 C   0  0  0  0  0  0  0  0  0
   -2.4750   -0.2815    0.0000 C   0  0  0  0  0  0  0  0  0
   -3.1895   -0.6940    0.0000 C   0  0  0  0  0  0  0  0  0
   -3.9040   -0.2815    0.0000 C   0  0  0  0  0  0  0  0  0
   -3.9040    0.5435    0.0000 C   0  0  0  0  0  0  0  0  0
   -3.1895    0.9560    0.0000 C   0  0  0  0  0  0  0  0  0
   -2.4750    0.5435    0.0000 C   0  0  0  0  0  0  0  0  0
   -4.6184    0.9560    0.0000 C   0  0  0  0  0  0  0  0  0
   -5.3329    1.3685    0.0000 C   0  0  0  0  0  0  0  0  0
   -4.2059    1.6705    0.0000 C   0  0  0  0  0  0  0  0  0
   -5.0309    0.2415    0.0000 C   0  0  0  0  0  0  0  0  0
  1  2  2  0  0  0  0
  1  3  2  0  0  0  0
  1  4  1  0  0  0  0
  1 21  1  0  0  0  0
  4  5  1  0  0  0  0
  5  6  4  0  0  0  0
  5 20  4  0  0  0  0
  6  7  4  0  0  0  0
  7  8  4  0  0  0  0
  7 12  4  0  0  0  0
  8  9  4  0  0  0  0
  8 19  4  0  0  0  0
  9 10  4  0  0  0  0
 10 11  4  0  0  0  0
 11 12  4  0  0  0  0
 12 13  1  0  0  0  0
 13 14  1  0  0  0  0
 13 18  1  0  0  0  0
 14 15  1  0  0  0  0
 15 16  1  0  0  0  0
 16 17  1  0  0  0  0
 17 18  1  0  0  0  0
 19 20  4  0  0  0  0
 21 22  4  0  0  0  0
 21 26  4  0  0  0  0
 22 23  4  0  0  0  0
 23 24  4  0  0  0  0
 24 25  4  0  0  0  0
 24 27  1  0  0  0  0
 25 26  4  0  0  0  0
 27 28  1  0  0  0  0
 27 29  1  0  0  0  0
 27 30  1  0  0  0  0
M  STY  1   1 DAT
M  SAL   1  1   9
M  SDT   1 MRV_IMPLICIT_H                                        
M  SDD   1     0.0000    0.0000    DR    ALL  0       0  
M  SED   1 IMPL_H1
M  END
>  <Name_Molregno>
157908

>  <5-HT1A>
6.1

>  <5-HT1B>
5.8

>  <5-HT1D>
5.9

>  <5-HT2A>
5.5

>  <5-HT2C>
5.7

>  <5-HT6>
9.2

>  <5-HT7>
5

>  <DOPAMINE D2>
5

>  <DOPAMINE D3>
5.3

$$$$
157986
  Marvin  02231216192D 0   1.00000     0.00000     0

 32 36  0  0  1  0  0  0  0  0999 V2000
    0.6566    1.4750    0.0000 Cl  0  0  0  0  0  0  0  0  0
    1.0691    0.7605    0.0000 C   0  0  0  0  0  0  0  0  0
    1.8941    0.7605    0.0000 C   0  0  0  0  0  0  0  0  0
    2.3066    0.0461    0.0000 C   0  0  0  0  0  0  0  0  0
    1.8941   -0.6684    0.0000 C   0  0  0  0  0  0  0  0  0
    2.4461   -1.2815    0.0000 S   0  0  0  0  0  0  0  0  0
    3.1998   -0.9460    0.0000 C   0  0  0  0  0  0  0  0  0
    3.9142   -1.3585    0.0000 S   0  0  0  0  0  0  0  0  0
    3.5017   -2.0729    0.0000 O   0  0  0  0  0  0  0  0  0
    4.3267   -0.6440    0.0000 O   0  0  0  0  0  0  0  0  0
    4.6287   -1.7710    0.0000 N   0  0  0  0  0  0  0  0  0
    5.3432   -1.3585    0.0000 C   0  0  0  0  0  0  0  0  0
    6.0576   -1.7710    0.0000 C   0  0  0  0  0  0  0  0  0
    6.7721   -1.3585    0.0000 C   0  0  0  0  0  0  0  0  0
    6.7721   -0.5335    0.0000 C   0  0  0  0  0  0  0  0  0
    7.4866   -0.1210    0.0000 N   0  0  0  0  0  0  0  0  0
    8.2011   -0.5335    0.0000 C   0  0  0  0  0  0  0  0  0
    8.2011   -1.3585    0.0000 C   0  0  0  0  0  0  0  0  0
    7.4866   -1.7710    0.0000 C   0  0  0  0  0  0  0  0  0
    7.4866   -2.5960    0.0000 N   0  0  0  0  0  0  0  0  0
    8.2011   -3.0085    0.0000 C   0  0  0  0  0  0  0  0  0
    8.2011   -3.8335    0.0000 C   0  0  0  0  0  0  0  0  0
    7.4866   -4.2460    0.0000 N   0  0  0  0  0  0  0  0  0
    6.7721   -3.8335    0.0000 C   0  0  0  0  0  0  0  0  0
    6.7721   -3.0085    0.0000 C   0  0  0  0  0  0  0  0  0
    8.9155   -4.2460    0.0000 C   0  0  0  0  0  0  0  0  0
    6.0576   -0.1210    0.0000 C   0  0  0  0  0  0  0  0  0
    5.3432   -0.5335    0.0000 C   0  0  0  0  0  0  0  0  0
    3.1135   -0.1255    0.0000 C   0  0  0  0  0  0  0  0  0
    3.7266    0.4266    0.0000 C   0  0  0  0  0  0  0  0  0
    1.0691   -0.6684    0.0000 C   0  0  0  0  0  0  0  0  0
    0.6566    0.0461    0.0000 C   0  0  0  0  0  0  0  0  0
  1  2  1  0  0  0  0
  2  3  4  0  0  0  0
  2 32  4  0  0  0  0
  3  4  4  0  0  0  0
  4  5  4  0  0  0  0
  4 29  4  0  0  0  0
  5  6  4  0  0  0  0
  5 31  4  0  0  0  0
  6  7  4  0  0  0  0
  7  8  1  0  0  0  0
  7 29  4  0  0  0  0
  8  9  2  0  0  0  0
  8 10  2  0  0  0  0
  8 11  1  0  0  0  0
 11 12  1  0  0  0  0
 12 13  4  0  0  0  0
 12 28  4  0  0  0  0
 13 14  4  0  0  0  0
 14 15  4  0  0  0  0
 14 19  4  0  0  0  0
 15 16  4  0  0  0  0
 15 27  4  0  0  0  0
 16 17  4  0  0  0  0
 17 18  4  0  0  0  0
 18 19  4  0  0  0  0
 19 20  1  0  0  0  0
 20 21  1  0  0  0  0
 20 25  1  0  0  0  0
 21 22  1  0  0  0  0
 22 23  1  0  0  0  0
 22 26  1  0  0  0  0
 23 24  1  0  0  0  0
 24 25  1  0  0  0  0
 27 28  4  0  0  0  0
 29 30  1  0  0  0  0
 31 32  4  0  0  0  0
M  STY  1   1 DAT
M  SAL   1  1  16
M  SDT   1 MRV_IMPLICIT_H                                        
M  SDD   1     0.0000    0.0000    DR    ALL  0       0  
M  SED   1 IMPL_H1
M  END
>  <Name_Molregno>
157986

>  <5-HT1A>
6

>  <5-HT1B>
5.6

>  <5-HT1D>
6.4

>  <5-HT2A>
5.6

>  <5-HT2C>
5.4

>  <5-HT6>
8.9

>  <5-HT7>
5.3

>  <DOPAMINE D2>
5.5

>  <DOPAMINE D3>
5.7

$$$$
158033
  Marvin  02231216192D 0   1.00000     0.00000     0

 31 35  0  0  0  0  0  0  0  0999 V2000
   -3.7032   -0.0442    0.0000 Cl  0  0  0  0  0  0  0  0  0
   -4.2552   -0.6573    0.0000 C   0  0  0  0  0  0  0  0  0
   -4.0003   -1.4419    0.0000 C   0  0  0  0  0  0  0  0  0
   -4.5523   -2.0550    0.0000 C   0  0  0  0  0  0  0  0  0
   -5.3593   -1.8835    0.0000 C   0  0  0  0  0  0  0  0  0
   -5.7718   -2.5979    0.0000 S   0  0  0  0  0  0  0  0  0
   -5.2198   -3.2110    0.0000 C   0  0  0  0  0  0  0  0  0
   -5.3913   -4.0180    0.0000 C   0  0  0  0  0  0  0  0  0
   -4.4661   -2.8755    0.0000 C   0  0  0  0  0  0  0  0  0
   -3.7516   -3.2880    0.0000 S   0  0  0  0  0  0  0  0  0
   -4.1641   -4.0024    0.0000 O   0  0  0  0  0  0  0  0  0
   -3.3391   -2.5735    0.0000 O   0  0  0  0  0  0  0  0  0
   -3.0372   -3.7005    0.0000 N   0  0  0  0  0  0  0  0  0
   -2.3227   -3.2880    0.0000 C   0  0  0  0  0  0  0  0  0
   -1.6082   -3.7005    0.0000 C   0  0  0  0  0  0  0  0  0
   -0.8937   -3.2880    0.0000 C   0  0  0  0  0  0  0  0  0
   -0.8937   -2.4630    0.0000 C   0  0  0  0  0  0  0  0  0
   -0.1793   -2.0505    0.0000 N   0  0  0  0  0  0  0  0  0
    0.5352   -2.4630    0.0000 C   0  0  0  0  0  0  0  0  0
    0.5352   -3.2880    0.0000 C   0  0  0  0  0  0  0  0  0
   -0.1793   -3.7005    0.0000 C   0  0  0  0  0  0  0  0  0
   -0.1793   -4.5255    0.0000 N   0  0  0  0  0  0  0  0  0
    0.5352   -4.9380    0.0000 C   0  0  0  0  0  0  0  0  0
    0.5352   -5.7630    0.0000 C   0  0  0  0  0  0  0  0  0
   -0.1793   -6.1755    0.0000 N   0  0  0  0  0  0  0  0  0
   -0.8937   -5.7630    0.0000 C   0  0  0  0  0  0  0  0  0
   -0.8937   -4.9380    0.0000 C   0  0  0  0  0  0  0  0  0
   -1.6082   -2.0505    0.0000 C   0  0  0  0  0  0  0  0  0
   -2.3227   -2.4630    0.0000 C   0  0  0  0  0  0  0  0  0
   -5.6142   -1.0988    0.0000 C   0  0  0  0  0  0  0  0  0
   -5.0622   -0.4858    0.0000 C   0  0  0  0  0  0  0  0  0
  1  2  1  0  0  0  0
  2  3  4  0  0  0  0
  2 31  4  0  0  0  0
  3  4  4  0  0  0  0
  4  5  4  0  0  0  0
  4  9  4  0  0  0  0
  5  6  4  0  0  0  0
  5 30  4  0  0  0  0
  6  7  4  0  0  0  0
  7  8  1  0  0  0  0
  7  9  4  0  0  0  0
  9 10  1  0  0  0  0
 10 11  2  0  0  0  0
 10 12  2  0  0  0  0
 10 13  1  0  0  0  0
 13 14  1  0  0  0  0
 14 15  4  0  0  0  0
 14 29  4  0  0  0  0
 15 16  4  0  0  0  0
 16 17  4  0  0  0  0
 16 21  4  0  0  0  0
 17 18  4  0  0  0  0
 17 28  4  0  0  0  0
 18 19  4  0  0  0  0
 19 20  4  0  0  0  0
 20 21  4  0  0  0  0
 21 22  1  0  0  0  0
 22 23  1  0  0  0  0
 22 27  1  0  0  0  0
 23 24  1  0  0  0  0
 24 25  1  0  0  0  0
 25 26  1  0  0  0  0
 26 27  1  0  0  0  0
 28 29  4  0  0  0  0
 30 31  4  0  0  0  0
M  STY  1   1 DAT
M  SAL   1  1  18
M  SDT   1 MRV_IMPLICIT_H                                        
M  SDD   1     0.0000    0.0000    DR    ALL  0       0  
M  SED   1 IMPL_H1
M  END
>  <Name_Molregno>
158033

>  <5-HT1A>
6.6

>  <5-HT1B>
6.3

>  <5-HT1D>
6.4

>  <5-HT2A>
5.7

>  <5-HT2C>
5.9

>  <5-HT6>
9

>  <5-HT7>
5.8

>  <DOPAMINE D2>
5.4

>  <DOPAMINE D3>
5.8

$$$$
158053
  Marvin  02231216192D 0   1.00000     0.00000     0

 31 35  0  0  0  0  0  0  0  0999 V2000
    0.7824    2.2935    0.0000 Cl  0  0  0  0  0  0  0  0  0
    1.1949    1.5790    0.0000 C   0  0  0  0  0  0  0  0  0
    2.0199    1.5790    0.0000 C   0  0  0  0  0  0  0  0  0
    2.4324    0.8645    0.0000 C   0  0  0  0  0  0  0  0  0
    2.0199    0.1501    0.0000 C   0  0  0  0  0  0  0  0  0
    2.5720   -0.4630    0.0000 S   0  0  0  0  0  0  0  0  0
    3.3256   -0.1275    0.0000 C   0  0  0  0  0  0  0  0  0
    4.0401   -0.5400    0.0000 S   0  0  0  0  0  0  0  0  0
    3.6276   -1.2545    0.0000 O   0  0  0  0  0  0  0  0  0
    4.4526    0.1745    0.0000 O   0  0  0  0  0  0  0  0  0
    4.7546   -0.9525    0.0000 N   0  0  0  0  0  0  0  0  0
    5.4691   -0.5400    0.0000 C   0  0  0  0  0  0  0  0  0
    6.1835   -0.9525    0.0000 C   0  0  0  0  0  0  0  0  0
    6.8980   -0.5400    0.0000 C   0  0  0  0  0  0  0  0  0
    6.8980    0.2850    0.0000 C   0  0  0  0  0  0  0  0  0
    7.6125    0.6975    0.0000 N   0  0  0  0  0  0  0  0  0
    8.3269    0.2850    0.0000 C   0  0  0  0  0  0  0  0  0
    8.3269   -0.5400    0.0000 C   0  0  0  0  0  0  0  0  0
    7.6125   -0.9525    0.0000 C   0  0  0  0  0  0  0  0  0
    7.6125   -1.7775    0.0000 N   0  0  0  0  0  0  0  0  0
    8.3269   -2.1900    0.0000 C   0  0  0  0  0  0  0  0  0
    8.3269   -3.0150    0.0000 C   0  0  0  0  0  0  0  0  0
    7.6125   -3.4275    0.0000 N   0  0  0  0  0  0  0  0  0
    6.8980   -3.0150    0.0000 C   0  0  0  0  0  0  0  0  0
    6.8980   -2.1900    0.0000 C   0  0  0  0  0  0  0  0  0
    6.1835    0.6975    0.0000 C   0  0  0  0  0  0  0  0  0
    5.4691    0.2850    0.0000 C   0  0  0  0  0  0  0  0  0
    3.2394    0.6930    0.0000 C   0  0  0  0  0  0  0  0  0
    3.8525    1.2450    0.0000 C   0  0  0  0  0  0  0  0  0
    1.1949    0.1501    0.0000 C   0  0  0  0  0  0  0  0  0
    0.7824    0.8645    0.0000 C   0  0  0  0  0  0  0  0  0
  1  2  1  0  0  0  0
  2  3  4  0  0  0  0
  2 31  4  0  0  0  0
  3  4  4  0  0  0  0
  4  5  4  0  0  0  0
  4 28  4  0  0  0  0
  5  6  4  0  0  0  0
  5 30  4  0  0  0  0
  6  7  4  0  0  0  0
  7  8  1  0  0  0  0
  7 28  4  0  0  0  0
  8  9  2  0  0  0  0
  8 10  2  0  0  0  0
  8 11  1  0  0  0  0
 11 12  1  0  0  0  0
 12 13  4  0  0  0  0
 12 27  4  0  0  0  0
 13 14  4  0  0  0  0
 14 15  4  0  0  0  0
 14 19  4  0  0  0  0
 15 16  4  0  0  0  0
 15 26  4  0  0  0  0
 16 17  4  0  0  0  0
 17 18  4  0  0  0  0
 18 19  4  0  0  0  0
 19 20  1  0  0  0  0
 20 21  1  0  0  0  0
 20 25  1  0  0  0  0
 21 22  1  0  0  0  0
 22 23  1  0  0  0  0
 23 24  1  0  0  0  0
 24 25  1  0  0  0  0
 26 27  4  0  0  0  0
 28 29  1  0  0  0  0
 30 31  4  0  0  0  0
M  STY  1   1 DAT
M  SAL   1  1  16
M  SDT   1 MRV_IMPLICIT_H                                        
M  SDD   1     0.0000    0.0000    DR    ALL  0       0  
M  SED   1 IMPL_H1
M  END
>  <Name_Molregno>
158053

>  <5-HT1A>
6

>  <5-HT1B>
5.7

>  <5-HT1D>
6.2

>  <5-HT2A>
5.6

>  <5-HT2C>
5.6

>  <5-HT6>
8.7

>  <5-HT7>
5.1

>  <DOPAMINE D2>
5

>  <DOPAMINE D3>
5.8

$$$$
158169
  Marvin  02231216192D 0   1.00000     0.00000     0

 32 36  0  0  0  0  0  0  0  0999 V2000
    0.7068    2.2807    0.0000 Cl  0  0  0  0  0  0  0  0  0
    1.1193    1.5662    0.0000 C   0  0  0  0  0  0  0  0  0
    1.9443    1.5662    0.0000 C   0  0  0  0  0  0  0  0  0
    2.3568    0.8517    0.0000 C   0  0  0  0  0  0  0  0  0
    1.9443    0.1373    0.0000 C   0  0  0  0  0  0  0  0  0
    2.4963   -0.4758    0.0000 S   0  0  0  0  0  0  0  0  0
    3.2500   -0.1403    0.0000 C   0  0  0  0  0  0  0  0  0
    3.9645   -0.5528    0.0000 S   0  0  0  0  0  0  0  0  0
    3.5520   -1.2672    0.0000 O   0  0  0  0  0  0  0  0  0
    4.3770    0.1617    0.0000 O   0  0  0  0  0  0  0  0  0
    4.6789   -0.9653    0.0000 N   0  0  0  0  0  0  0  0  0
    5.3934   -0.5528    0.0000 C   0  0  0  0  0  0  0  0  0
    6.1079   -0.9653    0.0000 C   0  0  0  0  0  0  0  0  0
    6.8223   -0.5528    0.0000 C   0  0  0  0  0  0  0  0  0
    6.8223    0.2722    0.0000 C   0  0  0  0  0  0  0  0  0
    7.5368    0.6847    0.0000 N   0  0  0  0  0  0  0  0  0
    8.2513    0.2722    0.0000 C   0  0  0  0  0  0  0  0  0
    8.2513   -0.5528    0.0000 C   0  0  0  0  0  0  0  0  0
    7.5368   -0.9653    0.0000 C   0  0  0  0  0  0  0  0  0
    7.5368   -1.7903    0.0000 N   0  0  0  0  0  0  0  0  0
    8.2513   -2.2028    0.0000 C   0  0  0  0  0  0  0  0  0
    8.2513   -3.0278    0.0000 C   0  0  0  0  0  0  0  0  0
    7.5368   -3.4403    0.0000 N   0  0  0  0  0  0  0  0  0
    6.8223   -3.0278    0.0000 C   0  0  0  0  0  0  0  0  0
    6.8223   -2.2028    0.0000 C   0  0  0  0  0  0  0  0  0
    6.1079    0.6847    0.0000 C   0  0  0  0  0  0  0  0  0
    5.3934    0.2722    0.0000 C   0  0  0  0  0  0  0  0  0
    3.1638    0.6802    0.0000 C   0  0  0  0  0  0  0  0  0
    3.7768    1.2322    0.0000 C   0  0  0  0  0  0  0  0  0
    4.5615    0.9773    0.0000 C   0  0  0  0  0  0  0  0  0
    1.1193    0.1373    0.0000 C   0  0  0  0  0  0  0  0  0
    0.7068    0.8517    0.0000 C   0  0  0  0  0  0  0  0  0
  1  2  1  0  0  0  0
  2  3  4  0  0  0  0
  2 32  4  0  0  0  0
  3  4  4  0  0  0  0
  4  5  4  0  0  0  0
  4 28  4  0  0  0  0
  5  6  4  0  0  0  0
  5 31  4  0  0  0  0
  6  7  4  0  0  0  0
  7  8  1  0  0  0  0
  7 28  4  0  0  0  0
  8  9  2  0  0  0  0
  8 10  2  0  0  0  0
  8 11  1  0  0  0  0
 11 12  1  0  0  0  0
 12 13  4  0  0  0  0
 12 27  4  0  0  0  0
 13 14  4  0  0  0  0
 14 15  4  0  0  0  0
 14 19  4  0  0  0  0
 15 16  4  0  0  0  0
 15 26  4  0  0  0  0
 16 17  4  0  0  0  0
 17 18  4  0  0  0  0
 18 19  4  0  0  0  0
 19 20  1  0  0  0  0
 20 21  1  0  0  0  0
 20 25  1  0  0  0  0
 21 22  1  0  0  0  0
 22 23  1  0  0  0  0
 23 24  1  0  0  0  0
 24 25  1  0  0  0  0
 26 27  4  0  0  0  0
 28 29  1  0  0  0  0
 29 30  1  0  0  0  0
 31 32  4  0  0  0  0
M  STY  1   1 DAT
M  SAL   1  1  16
M  SDT   1 MRV_IMPLICIT_H                                        
M  SDD   1     0.0000    0.0000    DR    ALL  0       0  
M  SED   1 IMPL_H1
M  END
>  <Name_Molregno>
158169

>  <5-HT1A>
5.4

>  <5-HT1B>
5.5

>  <5-HT1D>
5.6

>  <5-HT2A>
5.9

>  <5-HT2C>
5.9

>  <5-HT6>
8.9

>  <5-HT7>
5.3

>  <DOPAMINE D2>
6

>  <DOPAMINE D3>
5

$$$$
178068
  Marvin  02231216192D 0   1.00000     0.00000     0

 32 35  0  0  0  0  0  0  0  0999 V2000
    3.7835    3.5848    0.0000 O   0  0  0  0  0  0  0  0  0
    3.0690    3.9973    0.0000 C   0  0  0  0  0  0  0  0  0
    3.7835    2.7598    0.0000 C   0  0  0  0  0  0  0  0  0
    4.4980    2.3473    0.0000 C   0  0  0  0  0  0  0  0  0
    4.4980    1.5223    0.0000 C   0  0  0  0  0  0  0  0  0
    3.7835    1.1098    0.0000 C   0  0  0  0  0  0  0  0  0
    3.7835    0.2848    0.0000 N   0  0  0  0  0  0  0  0  0
    4.4980   -0.1277    0.0000 C   0  0  0  0  0  0  0  0  0
    5.2124    0.2848    0.0000 O   0  0  0  0  0  0  0  0  0
    4.4980   -0.9527    0.0000 N   0  0  0  0  0  0  0  0  0
    5.2124   -1.3652    0.0000 C   0  0  0  0  0  0  0  0  0
    5.2124   -2.1902    0.0000 C   0  0  0  0  0  0  0  0  0
    4.4980   -2.6027    0.0000 N   0  0  0  0  0  0  0  0  0
    3.7835   -2.1902    0.0000 C   0  0  0  0  0  0  0  0  0
    3.7835   -1.3652    0.0000 C   0  0  0  0  0  0  0  0  0
    4.4980   -3.4277    0.0000 C   0  0  0  0  0  0  0  0  0
    5.2124   -3.8402    0.0000 C   0  0  0  0  0  0  0  0  0
    5.2124   -4.6652    0.0000 C   0  0  0  0  0  0  0  0  0
    4.4980   -5.0777    0.0000 C   0  0  0  0  0  0  0  0  0
    3.7835   -4.6652    0.0000 C   0  0  0  0  0  0  0  0  0
    3.7835   -3.8402    0.0000 C   0  0  0  0  0  0  0  0  0
    3.0690   -3.4277    0.0000 O   0  0  0  0  0  0  0  0  0
    2.3546   -3.8402    0.0000 C   0  0  0  0  0  0  0  0  0
    3.0690    1.5223    0.0000 C   0  0  0  0  0  0  0  0  0
    3.0690    2.3473    0.0000 C   0  0  0  0  0  0  0  0  0
    2.3546    2.7598    0.0000 N   0  0  0  0  0  0  0  0  0
    1.6401    2.3473    0.0000 C   0  0  0  0  0  0  0  0  0
    0.9256    2.7598    0.0000 C   0  0  0  0  0  0  0  0  0
    0.9256    3.5848    0.0000 N   0  0  0  0  0  0  0  0  0
    1.6401    3.9973    0.0000 C   0  0  0  0  0  0  0  0  0
    2.3546    3.5848    0.0000 C   0  0  0  0  0  0  0  0  0
    0.2111    3.9973    0.0000 C   0  0  0  0  0  0  0  0  0
  1  2  1  0  0  0  0
  1  3  1  0  0  0  0
  3  4  4  0  0  0  0
  3 25  4  0  0  0  0
  4  5  4  0  0  0  0
  5  6  4  0  0  0  0
  6  7  1  0  0  0  0
  6 24  4  0  0  0  0
  7  8  1  0  0  0  0
  8  9  2  0  0  0  0
  8 10  1  0  0  0  0
 10 11  1  0  0  0  0
 10 15  1  0  0  0  0
 11 12  1  0  0  0  0
 12 13  1  0  0  0  0
 13 14  1  0  0  0  0
 13 16  1  0  0  0  0
 14 15  1  0  0  0  0
 16 17  4  0  0  0  0
 16 21  4  0  0  0  0
 17 18  4  0  0  0  0
 18 19  4  0  0  0  0
 19 20  4  0  0  0  0
 20 21  4  0  0  0  0
 21 22  1  0  0  0  0
 22 23  1  0  0  0  0
 24 25  4  0  0  0  0
 25 26  1  0  0  0  0
 26 27  1  0  0  0  0
 26 31  1  0  0  0  0
 27 28  1  0  0  0  0
 28 29  1  0  0  0  0
 29 30  1  0  0  0  0
 29 32  1  0  0  0  0
 30 31  1  0  0  0  0
M  END
>  <Name_Molregno>
178068

>  <5-HT1A>
6.17

>  <5-HT1B>
8.44

>  <5-HT1D>
7.02

>  <5-HT2A>
5.17

>  <5-HT2C>
5.71

>  <5-HT6>
5.62

>  <5-HT7>
5.85

>  <DOPAMINE D1>
5

>  <DOPAMINE D2>
5

>  <DOPAMINE D3>
5

>  <DOPAMINE D4>
5

>  <DOPAMINE D5>
5

>  <HISTAMINE H1>
5

>  <Muscarinic acetylcholine receptor M1>
5

>  <Muscarinic acetylcholine receptor M2>
5

>  <Muscarinic acetylcholine receptor M3>
5

>  <Muscarinic acetylcholine receptor M4>
5

>  <Muscarinic acetylcholine receptor M5>
5

$$$$
190074
  Marvin  02231216192D 0   1.00000     0.00000     0

 18 19  0  0  1  0  0  0  0  0999 V2000
   -0.0067   -0.0070    0.0000 O   0  0  0  0  0  0  0  0  0
    0.7077    0.4055    0.0000 C   0  0  0  0  0  0  0  0  0
    1.4222   -0.0070    0.0000 C   0  0  0  0  0  0  0  0  0
    1.4222   -0.8320    0.0000 O   0  0  0  0  0  0  0  0  0
    2.1367    0.4055    0.0000 C   0  0  0  0  0  0  0  0  0
    2.8511   -0.0070    0.0000 N   0  0  0  0  0  0  0  0  0
    3.5656    0.4055    0.0000 C   0  0  0  0  0  0  0  0  0
    4.2801   -0.0070    0.0000 C   0  0  0  0  0  0  0  0  0
    3.5656    1.2305    0.0000 C   0  0  0  0  0  0  0  0  0
   -0.7212    0.4055    0.0000 C   0  0  0  0  0  0  0  0  0
   -1.4357   -0.0070    0.0000 C   0  0  0  0  0  0  0  0  0
   -2.1502    0.4055    0.0000 C   0  0  0  0  0  0  0  0  0
   -2.7633   -0.1465    0.0000 N   0  0  0  0  0  0  0  0  0
   -2.4277   -0.9002    0.0000 C   0  0  0  0  0  0  0  0  0
   -1.6072   -0.8139    0.0000 C   0  0  0  0  0  0  0  0  0
   -2.1502    1.2305    0.0000 C   0  0  0  0  0  0  0  0  0
   -1.4357    1.6430    0.0000 C   0  0  0  0  0  0  0  0  0
   -0.7212    1.2305    0.0000 C   0  0  0  0  0  0  0  0  0
  1  2  1  0  0  0  0
  1 10  1  0  0  0  0
  2  3  1  0  0  0  0
  3  4  1  0  0  0  0
  3  5  1  0  0  0  0
  5  6  1  0  0  0  0
  6  7  1  0  0  0  0
  7  8  1  0  0  0  0
  7  9  1  0  0  0  0
 10 11  4  0  0  0  0
 10 18  4  0  0  0  0
 11 12  4  0  0  0  0
 11 15  4  0  0  0  0
 12 13  4  0  0  0  0
 12 16  4  0  0  0  0
 13 14  4  0  0  0  0
 14 15  4  0  0  0  0
 16 17  4  0  0  0  0
 17 18  4  0  0  0  0
M  STY  1   1 DAT
M  SAL   1  1  13
M  SDT   1 MRV_IMPLICIT_H                                        
M  SDD   1     0.0000    0.0000    DR    ALL  0       0  
M  SED   1 IMPL_H1
M  END
>  <Name_Molregno>
190074

>  <5-HT1A>
7.39

>  <5-HT1B>
5.39

>  <5-HT1D>
5.11

>  <5-HT1E>
5

>  <5-HT2A>
5.03

>  <5-HT2C>
5

>  <5-HT7>
5

>  <Beta-1>
8.96

>  <Beta-2>
9.04

>  <Serotonin transporter>
5.15

$$$$
190684
  Marvin  02231216192D 0   1.00000     0.00000     0

 28 31  0  0  1  0  0  0  0  0999 V2000
    0.0207   -0.1691    0.0000 S   0  0  0  0  0  0  0  0  0
    0.8457   -0.1691    0.0000 O   0  0  0  0  0  0  0  0  0
   -0.8043   -0.1691    0.0000 O   0  0  0  0  0  0  0  0  0
    0.0207   -0.9941    0.0000 N   0  0  0  0  0  0  0  0  0
    0.7351   -1.4066    0.0000 C   0  0  0  0  0  0  0  0  0
    0.7351   -2.2316    0.0000 C   0  0  0  0  0  0  0  0  0
    0.0207   -2.6441    0.0000 C   0  0  0  0  0  0  0  0  0
   -0.6938   -2.2316    0.0000 C   0  0  0  0  0  0  0  0  0
   -0.6938   -1.4066    0.0000 C   0  0  0  0  0  0  0  0  0
   -1.4083   -0.9941    0.0000 C   0  0  0  0  0  0  0  0  0
   -2.1228   -1.4066    0.0000 C   0  0  0  0  0  0  0  0  0
   -2.8372   -0.9941    0.0000 N   0  0  0  0  0  0  0  0  0
   -3.5517   -1.4066    0.0000 C   0  0  0  0  0  0  0  0  0
   -4.2662   -0.9941    0.0000 C   0  0  0  0  0  0  0  0  0
   -4.2662   -0.1691    0.0000 C   0  0  0  0  0  0  0  0  0
   -3.5517    0.2434    0.0000 C   0  0  0  0  0  0  0  0  0
   -2.8372   -0.1691    0.0000 C   0  0  0  0  0  0  0  0  0
   -4.9806    0.2434    0.0000 C   0  0  0  0  0  0  0  0  0
    0.0207    0.6559    0.0000 C   0  0  0  0  0  0  0  0  0
    0.7351    1.0684    0.0000 C   0  0  0  0  0  0  0  0  0
    0.7351    1.8934    0.0000 C   0  0  0  0  0  0  0  0  0
    0.0207    2.3059    0.0000 C   0  0  0  0  0  0  0  0  0
   -0.6938    1.8934    0.0000 C   0  0  0  0  0  0  0  0  0
   -0.6938    1.0684    0.0000 C   0  0  0  0  0  0  0  0  0
    1.4496    2.3059    0.0000 C   0  0  0  0  0  0  0  0  0
    2.1641    1.8934    0.0000 C   0  0  0  0  0  0  0  0  0
    2.1641    1.0684    0.0000 C   0  0  0  0  0  0  0  0  0
    1.4496    0.6559    0.0000 C   0  0  0  0  0  0  0  0  0
  1  2  2  0  0  0  0
  1  3  2  0  0  0  0
  1  4  1  0  0  0  0
  1 19  1  0  0  0  0
  4  5  1  0  0  0  0
  4  9  1  0  0  0  0
  5  6  1  0  0  0  0
  6  7  1  0  0  0  0
  7  8  1  0  0  0  0
  8  9  1  0  0  0  0
  9 10  1  0  0  0  0
 10 11  1  0  0  0  0
 11 12  1  0  0  0  0
 12 13  1  0  0  0  0
 12 17  1  0  0  0  0
 13 14  1  0  0  0  0
 14 15  1  0  0  0  0
 15 16  1  0  0  0  0
 15 18  1  0  0  0  0
 16 17  1  0  0  0  0
 19 20  4  0  0  0  0
 19 24  4  0  0  0  0
 20 21  4  0  0  0  0
 20 28  4  0  0  0  0
 21 22  4  0  0  0  0
 21 25  4  0  0  0  0
 22 23  4  0  0  0  0
 23 24  4  0  0  0  0
 25 26  4  0  0  0  0
 26 27  4  0  0  0  0
 27 28  4  0  0  0  0
M  END
>  <Name_Molregno>
190684

>  <5-HT2A>
5.55

$$$$
191205
  Marvin  02231216192D 0   1.00000     0.00000     0

 25 27  0  0  1  0  0  0  0  0999 V2000
    6.0248    1.6789    0.0000 Cl  0  0  0  0  0  0  0  0  0
    5.3103    1.2664    0.0000 C   0  0  0  0  0  0  0  0  0
    5.3103    0.4414    0.0000 C   0  0  0  0  0  0  0  0  0
    4.5958    0.0289    0.0000 C   0  0  0  0  0  0  0  0  0
    4.5958   -0.7961    0.0000 S   0  0  0  0  0  0  0  0  0
    5.4208   -0.7961    0.0000 O   0  0  0  0  0  0  0  0  0
    3.7708   -0.7961    0.0000 O   0  0  0  0  0  0  0  0  0
    4.5958   -1.6211    0.0000 N   0  0  0  0  0  0  0  0  0
    5.2633   -2.1060    0.0000 C   0  0  0  0  0  0  0  0  0
    5.0083   -2.8906    0.0000 C   0  0  0  0  0  0  0  0  0
    4.1833   -2.8906    0.0000 C   0  0  0  0  0  0  0  0  0
    3.9284   -2.1060    0.0000 C   0  0  0  0  0  0  0  0  0
    3.1438   -1.8510    0.0000 C   0  0  0  0  0  0  0  0  0
    2.5307   -2.4031    0.0000 C   0  0  0  0  0  0  0  0  0
    1.7461   -2.1481    0.0000 N   0  0  0  0  0  0  0  0  0
    1.1330   -2.7002    0.0000 C   0  0  0  0  0  0  0  0  0
    0.3484   -2.4452    0.0000 C   0  0  0  0  0  0  0  0  0
    0.1768   -1.6383    0.0000 C   0  0  0  0  0  0  0  0  0
    0.7899   -1.0862    0.0000 C   0  0  0  0  0  0  0  0  0
    1.5745   -1.3412    0.0000 C   0  0  0  0  0  0  0  0  0
   -0.6078   -1.3833    0.0000 C   0  0  0  0  0  0  0  0  0
    3.8814    0.4414    0.0000 C   0  0  0  0  0  0  0  0  0
    3.8814    1.2664    0.0000 C   0  0  0  0  0  0  0  0  0
    4.5958    1.6789    0.0000 C   0  0  0  0  0  0  0  0  0
    4.5958    2.5039    0.0000 Cl  0  0  0  0  0  0  0  0  0
  1  2  1  0  0  0  0
  2  3  4  0  0  0  0
  2 24  4  0  0  0  0
  3  4  4  0  0  0  0
  4  5  1  0  0  0  0
  4 22  4  0  0  0  0
  5  6  2  0  0  0  0
  5  7  2  0  0  0  0
  5  8  1  0  0  0  0
  8  9  1  0  0  0  0
  8 12  1  0  0  0  0
  9 10  1  0  0  0  0
 10 11  1  0  0  0  0
 11 12  1  0  0  0  0
 12 13  1  0  0  0  0
 13 14  1  0  0  0  0
 14 15  1  0  0  0  0
 15 16  1  0  0  0  0
 15 20  1  0  0  0  0
 16 17  1  0  0  0  0
 17 18  1  0  0  0  0
 18 19  1  0  0  0  0
 18 21  1  0  0  0  0
 19 20  1  0  0  0  0
 22 23  4  0  0  0  0
 23 24  4  0  0  0  0
 24 25  1  0  0  0  0
M  END
>  <Name_Molregno>
191205

>  <5-HT2A>
6

$$$$
191237
  Marvin  02231216192D 0   1.00000     0.00000     0

 24 26  0  0  1  0  0  0  0  0999 V2000
    6.1779    1.7059    0.0000 Br  0  0  0  0  0  0  0  0  0
    5.4634    1.2934    0.0000 C   0  0  0  0  0  0  0  0  0
    5.4634    0.4684    0.0000 C   0  0  0  0  0  0  0  0  0
    4.7490    0.0559    0.0000 C   0  0  0  0  0  0  0  0  0
    4.7490   -0.7691    0.0000 S   0  0  0  0  0  0  0  0  0
    3.9240   -0.7691    0.0000 O   0  0  0  0  0  0  0  0  0
    5.5740   -0.7691    0.0000 O   0  0  0  0  0  0  0  0  0
    4.7490   -1.5941    0.0000 N   0  0  0  0  0  0  0  0  0
    5.4164   -2.0790    0.0000 C   0  0  0  0  0  0  0  0  0
    5.1615   -2.8636    0.0000 C   0  0  0  0  0  0  0  0  0
    4.3365   -2.8636    0.0000 C   0  0  0  0  0  0  0  0  0
    4.0815   -2.0790    0.0000 C   0  0  0  0  0  0  0  0  0
    3.2969   -1.8241    0.0000 C   0  0  0  0  0  0  0  0  0
    2.6838   -2.3761    0.0000 C   0  0  0  0  0  0  0  0  0
    1.8992   -2.1212    0.0000 N   0  0  0  0  0  0  0  0  0
    1.2861   -2.6732    0.0000 C   0  0  0  0  0  0  0  0  0
    0.5015   -2.4183    0.0000 C   0  0  0  0  0  0  0  0  0
    0.3299   -1.6113    0.0000 C   0  0  0  0  0  0  0  0  0
    0.9430   -1.0593    0.0000 C   0  0  0  0  0  0  0  0  0
    1.7277   -1.3142    0.0000 C   0  0  0  0  0  0  0  0  0
   -0.4547   -1.3564    0.0000 C   0  0  0  0  0  0  0  0  0
    4.0345    0.4684    0.0000 C   0  0  0  0  0  0  0  0  0
    4.0345    1.2934    0.0000 C   0  0  0  0  0  0  0  0  0
    4.7490    1.7059    0.0000 C   0  0  0  0  0  0  0  0  0
  1  2  1  0  0  0  0
  2  3  4  0  0  0  0
  2 24  4  0  0  0  0
  3  4  4  0  0  0  0
  4  5  1  0  0  0  0
  4 22  4  0  0  0  0
  5  6  2  0  0  0  0
  5  7  2  0  0  0  0
  5  8  1  0  0  0  0
  8  9  1  0  0  0  0
  8 12  1  0  0  0  0
  9 10  1  0  0  0  0
 10 11  1  0  0  0  0
 11 12  1  0  0  0  0
 12 13  1  0  0  0  0
 13 14  1  0  0  0  0
 14 15  1  0  0  0  0
 15 16  1  0  0  0  0
 15 20  1  0  0  0  0
 16 17  1  0  0  0  0
 17 18  1  0  0  0  0
 18 19  1  0  0  0  0
 18 21  1  0  0  0  0
 19 20  1  0  0  0  0
 22 23  4  0  0  0  0
 23 24  4  0  0  0  0
M  END
>  <Name_Molregno>
191237

>  <5-HT2A>
5.3

$$$$
197006
  Marvin  02231216192D 0   1.00000     0.00000     0

 31 36  0  0  1  0  0  0  0  0999 V2000
    5.9107    4.1504    0.0000 F   0  0  0  0  0  0  0  0  0
    6.2463    3.3967    0.0000 C   0  0  0  0  0  0  0  0  0
    7.0667    3.3105    0.0000 C   0  0  0  0  0  0  0  0  0
    7.4023    2.5568    0.0000 C   0  0  0  0  0  0  0  0  0
    8.1869    2.3019    0.0000 O   0  0  0  0  0  0  0  0  0
    8.1869    1.4769    0.0000 N   0  0  0  0  0  0  0  0  0
    7.4023    1.2220    0.0000 C   0  0  0  0  0  0  0  0  0
    6.9174    1.8894    0.0000 C   0  0  0  0  0  0  0  0  0
    6.0969    1.9756    0.0000 C   0  0  0  0  0  0  0  0  0
    5.7613    2.7293    0.0000 C   0  0  0  0  0  0  0  0  0
    7.1474    0.4373    0.0000 C   0  0  0  0  0  0  0  0  0
    7.6994   -0.1758    0.0000 C   0  0  0  0  0  0  0  0  0
    7.4445   -0.9604    0.0000 C   0  0  0  0  0  0  0  0  0
    6.6375   -1.1319    0.0000 N   0  0  0  0  0  0  0  0  0
    6.0854   -0.5188    0.0000 C   0  0  0  0  0  0  0  0  0
    6.3404    0.2658    0.0000 C   0  0  0  0  0  0  0  0  0
    6.3825   -1.9165    0.0000 C   0  0  0  0  0  0  0  0  0
    5.5756   -2.0881    0.0000 C   0  0  0  0  0  0  0  0  0
    5.3206   -2.8727    0.0000 C   0  0  0  0  0  0  0  0  0
    4.5137   -3.0442    0.0000 C   0  0  0  0  0  0  0  0  0
    4.2587   -3.8288    0.0000 O   0  0  0  0  0  0  0  0  0
    3.9616   -2.4311    0.0000 C   0  0  0  0  0  0  0  0  0
    4.2166   -1.6465    0.0000 C   0  0  0  0  0  0  0  0  0
    3.5491   -1.1616    0.0000 N   0  0  0  0  0  0  0  0  0
    2.8817   -1.6465    0.0000 C   0  0  0  0  0  0  0  0  0
    3.1366   -2.4311    0.0000 C   0  0  0  0  0  0  0  0  0
    2.5846   -3.0442    0.0000 C   0  0  0  0  0  0  0  0  0
    1.7776   -2.8727    0.0000 C   0  0  0  0  0  0  0  0  0
    1.5227   -2.0881    0.0000 C   0  0  0  0  0  0  0  0  0
    2.0747   -1.4750    0.0000 C   0  0  0  0  0  0  0  0  0
    5.0235   -1.4750    0.0000 C   0  0  0  0  0  0  0  0  0
  1  2  1  0  0  0  0
  2  3  4  0  0  0  0
  2 10  4  0  0  0  0
  3  4  4  0  0  0  0
  4  5  4  0  0  0  0
  4  8  4  0  0  0  0
  5  6  4  0  0  0  0
  6  7  4  0  0  0  0
  7  8  4  0  0  0  0
  7 11  1  0  0  0  0
  8  9  4  0  0  0  0
  9 10  4  0  0  0  0
 11 12  1  0  0  0  0
 11 16  1  0  0  0  0
 12 13  1  0  0  0  0
 13 14  1  0  0  0  0
 14 15  1  0  0  0  0
 14 17  1  0  0  0  0
 15 16  1  0  0  0  0
 17 18  1  0  0  0  0
 18 19  1  0  0  0  0
 18 31  1  0  0  0  0
 19 20  1  0  0  0  0
 20 21  2  0  0  0  0
 20 22  1  0  0  0  0
 22 23  4  0  0  0  0
 22 26  4  0  0  0  0
 23 24  4  0  0  0  0
 23 31  1  0  0  0  0
 24 25  4  0  0  0  0
 25 26  4  0  0  0  0
 25 30  4  0  0  0  0
 26 27  4  0  0  0  0
 27 28  4  0  0  0  0
 28 29  4  0  0  0  0
 29 30  4  0  0  0  0
M  STY  1   1 DAT
M  SAL   1  1  24
M  SDT   1 MRV_IMPLICIT_H                                        
M  SDD   1     0.0000    0.0000    DR    ALL  0       0  
M  SED   1 IMPL_H1
M  END
>  <Name_Molregno>
197006

>  <5-HT2A>
8.93

$$$$
209616
  Marvin  02231216192D 0   1.00000     0.00000     0

 22 25  0  0  0  0  0  0  0  0999 V2000
    0.4466    0.9226    0.0000 N   0  0  0  0  0  0  0  0  0
    0.9610    0.2776    0.0000 C   0  0  0  0  0  0  0  0  0
    0.7774   -0.5267    0.0000 C   0  0  0  0  0  0  0  0  0
    0.0341   -0.8847    0.0000 C   0  0  0  0  0  0  0  0  0
   -0.7092   -0.5267    0.0000 C   0  0  0  0  0  0  0  0  0
   -0.8927    0.2776    0.0000 C   0  0  0  0  0  0  0  0  0
   -1.6811    0.5208    0.0000 C   0  0  0  0  0  0  0  0  0
   -2.2859   -0.0404    0.0000 C   0  0  0  0  0  0  0  0  0
   -2.1023   -0.8447    0.0000 C   0  0  0  0  0  0  0  0  0
   -1.3139   -1.0879    0.0000 C   0  0  0  0  0  0  0  0  0
   -0.3784    0.9226    0.0000 C   0  0  0  0  0  0  0  0  0
   -0.7363    1.6659    0.0000 N   0  0  0  0  0  0  0  0  0
   -1.5590    1.7276    0.0000 C   0  0  0  0  0  0  0  0  0
   -1.9170    2.4709    0.0000 C   0  0  0  0  0  0  0  0  0
   -1.4522    3.1525    0.0000 N   0  0  0  0  0  0  0  0  0
   -0.6295    3.0909    0.0000 C   0  0  0  0  0  0  0  0  0
   -0.2716    2.3476    0.0000 C   0  0  0  0  0  0  0  0  0
   -1.8102    3.8958    0.0000 C   0  0  0  0  0  0  0  0  0
    1.3822   -1.0879    0.0000 C   0  0  0  0  0  0  0  0  0
    2.1706   -0.8447    0.0000 C   0  0  0  0  0  0  0  0  0
    2.3541   -0.0404    0.0000 C   0  0  0  0  0  0  0  0  0
    1.7494    0.5208    0.0000 C   0  0  0  0  0  0  0  0  0
  1  2  1  0  0  0  0
  1 11  2  0  0  0  0
  2  3  4  0  0  0  0
  2 22  4  0  0  0  0
  3  4  1  0  0  0  0
  3 19  4  0  0  0  0
  4  5  1  0  0  0  0
  5  6  4  0  0  0  0
  5 10  4  0  0  0  0
  6  7  4  0  0  0  0
  6 11  1  0  0  0  0
  7  8  4  0  0  0  0
  8  9  4  0  0  0  0
  9 10  4  0  0  0  0
 11 12  1  0  0  0  0
 12 13  1  0  0  0  0
 12 17  1  0  0  0  0
 13 14  1  0  0  0  0
 14 15  1  0  0  0  0
 15 16  1  0  0  0  0
 15 18  1  0  0  0  0
 16 17  1  0  0  0  0
 19 20  4  0  0  0  0
 20 21  4  0  0  0  0
 21 22  4  0  0  0  0
M  END
>  <Name_Molregno>
209616

>  <5-HT2A>
7.7

>  <5-HT6>
6.82

>  <DOPAMINE D2>
7.22

>  <DOPAMINE D3>
7

>  <DOPAMINE D4>
7.52

>  <HISTAMINE H4>
5.32

$$$$
209761
  Marvin  02231216192D 0   1.00000     0.00000     0

 26 29  0  0  1  0  0  0  0  0999 V2000
    1.6711    3.5863    0.0000 F   0  0  0  0  0  0  0  0  0
    2.0937    2.8777    0.0000 C   0  0  0  0  0  0  0  0  0
    2.9186    2.8894    0.0000 C   0  0  0  0  0  0  0  0  0
    3.3412    2.1809    0.0000 C   0  0  0  0  0  0  0  0  0
    2.9389    1.4606    0.0000 C   0  0  0  0  0  0  0  0  0
    2.1140    1.4489    0.0000 C   0  0  0  0  0  0  0  0  0
    1.6914    2.1575    0.0000 C   0  0  0  0  0  0  0  0  0
    3.3615    0.7521    0.0000 C   0  0  0  0  0  0  0  0  0
    2.9592    0.0318    0.0000 O   0  0  0  0  0  0  0  0  0
    4.1864    0.7638    0.0000 C   0  0  0  0  0  0  0  0  0
    4.6090    0.0553    0.0000 C   0  0  0  0  0  0  0  0  0
    5.4339    0.0670    0.0000 C   0  0  0  0  0  0  0  0  0
    5.8565   -0.6415    0.0000 N   0  0  0  0  0  0  0  0  0
    6.4171   -1.0814    0.0000 C   0  0  0  0  0  0  0  0  0
    7.3459   -1.0659    0.0000 C   0  0  0  0  0  0  0  0  0
    7.4841   -1.8833    0.0000 C   0  0  0  0  0  0  0  0  0
    6.9679   -1.4546    0.0000 C   0  0  0  0  0  0  0  0  0
    5.9962   -1.4546    0.0000 C   0  0  0  0  0  0  0  0  0
    5.4763   -2.1669    0.0000 C   0  0  0  0  0  0  0  0  0
    6.0966   -1.7900    0.0000 C   0  0  0  0  0  0  0  0  0
    7.8959   -2.5982    0.0000 C   0  0  0  0  0  0  0  0  0
    8.7209   -2.5990    0.0000 C   0  0  0  0  0  0  0  0  0
    9.1327   -3.3139    0.0000 C   0  0  0  0  0  0  0  0  0
    8.7195   -4.0280    0.0000 C   0  0  0  0  0  0  0  0  0
    7.8945   -4.0272    0.0000 C   0  0  0  0  0  0  0  0  0
    7.4827   -3.3123    0.0000 C   0  0  0  0  0  0  0  0  0
  1  2  1  0  0  0  0
  2  3  4  0  0  0  0
  2  7  4  0  0  0  0
  3  4  4  0  0  0  0
  4  5  4  0  0  0  0
  5  6  4  0  0  0  0
  5  8  1  0  0  0  0
  6  7  4  0  0  0  0
  8  9  2  0  0  0  0
  8 10  1  0  0  0  0
 10 11  1  0  0  0  0
 11 12  1  0  0  0  0
 12 13  1  0  0  0  0
 13 14  1  0  0  0  0
 13 18  1  0  0  0  0
 14 15  1  0  0  0  0
 14 20  1  0  0  0  0
 15 16  1  0  0  0  0
 16 17  1  0  0  0  0
 16 21  1  0  0  0  0
 17 18  1  0  0  0  0
 18 19  1  0  0  0  0
 19 20  1  0  0  0  0
 21 22  4  0  0  0  0
 21 26  4  0  0  0  0
 22 23  4  0  0  0  0
 23 24  4  0  0  0  0
 24 25  4  0  0  0  0
 25 26  4  0  0  0  0
M  END
>  <Name_Molregno>
209761

>  <5-HT1A>
6.38

>  <5-HT2A>
6.97

>  <5-HT2C>
5.97

>  <DOPAMINE D2>
6.91

>  <DOPAMINE D4>
6.75

>  <HISTAMINE H1>
6.01

$$$$
217067
  Marvin  02231216192D 0   1.00000     0.00000     0

 29 31  0  0  1  0  0  0  0  0999 V2000
   -1.2017    1.0936    0.0000 S   0  0  0  0  0  0  0  0  0
   -1.2017    0.2686    0.0000 O   0  0  0  0  0  0  0  0  0
   -1.2017    1.9186    0.0000 O   0  0  0  0  0  0  0  0  0
   -2.0267    1.0936    0.0000 C   0  0  0  0  0  0  0  0  0
   -2.4392    0.3791    0.0000 C   0  0  0  0  0  0  0  0  0
   -2.0267   -0.3354    0.0000 C   0  0  0  0  0  0  0  0  0
   -2.4392   -1.0498    0.0000 C   0  0  0  0  0  0  0  0  0
   -2.0267   -1.7643    0.0000 C   0  0  0  0  0  0  0  0  0
   -2.4392   -2.4788    0.0000 C   0  0  0  0  0  0  0  0  0
   -3.2642   -2.4788    0.0000 C   0  0  0  0  0  0  0  0  0
   -3.6767   -3.1932    0.0000 N   0  0  0  0  0  0  0  0  0
   -4.5017   -3.1932    0.0000 C   0  0  0  0  0  0  0  0  0
   -4.9142   -3.9077    0.0000 C   0  0  0  0  0  0  0  0  0
   -5.7392   -3.9077    0.0000 C   0  0  0  0  0  0  0  0  0
   -3.2642   -3.9077    0.0000 C   0  0  0  0  0  0  0  0  0
   -2.4392   -3.9077    0.0000 C   0  0  0  0  0  0  0  0  0
   -2.0267   -4.6222    0.0000 C   0  0  0  0  0  0  0  0  0
   -3.6767   -1.7643    0.0000 C   0  0  0  0  0  0  0  0  0
   -3.2642   -1.0498    0.0000 C   0  0  0  0  0  0  0  0  0
   -3.6767   -0.3354    0.0000 C   0  0  0  0  0  0  0  0  0
   -3.2642    0.3791    0.0000 C   0  0  0  0  0  0  0  0  0
   -0.3767    1.0936    0.0000 C   0  0  0  0  0  0  0  0  0
    0.0358    1.8081    0.0000 C   0  0  0  0  0  0  0  0  0
    0.8608    1.8081    0.0000 C   0  0  0  0  0  0  0  0  0
    1.2733    1.0936    0.0000 C   0  0  0  0  0  0  0  0  0
    2.0983    1.0936    0.0000 O   0  0  0  0  0  0  0  0  0
    2.5108    1.8081    0.0000 C   0  0  0  0  0  0  0  0  0
    0.8608    0.3791    0.0000 C   0  0  0  0  0  0  0  0  0
    0.0358    0.3791    0.0000 C   0  0  0  0  0  0  0  0  0
  1  2  2  0  0  0  0
  1  3  2  0  0  0  0
  1  4  1  0  0  0  0
  1 22  1  0  0  0  0
  4  5  1  0  0  0  0
  5  6  4  0  0  0  0
  5 21  4  0  0  0  0
  6  7  4  0  0  0  0
  7  8  1  0  0  0  0
  7 19  4  0  0  0  0
  8  9  1  0  0  0  0
  9 10  1  0  0  0  0
 10 11  1  0  0  0  0
 10 18  1  0  0  0  0
 11 12  1  0  0  0  0
 11 15  1  0  0  0  0
 12 13  1  0  0  0  0
 13 14  1  0  0  0  0
 15 16  1  0  0  0  0
 16 17  1  0  0  0  0
 18 19  1  0  0  0  0
 19 20  4  0  0  0  0
 20 21  4  0  0  0  0
 22 23  4  0  0  0  0
 22 29  4  0  0  0  0
 23 24  4  0  0  0  0
 24 25  4  0  0  0  0
 25 26  1  0  0  0  0
 25 28  4  0  0  0  0
 26 27  1  0  0  0  0
 28 29  4  0  0  0  0
M  END
>  <Name_Molregno>
217067

>  <5-HT1A>
6.8

>  <5-HT1B>
6

>  <5-HT1D>
6

>  <5-HT2A>
6

>  <5-HT2C>
6

>  <DOPAMINE D1>
6

>  <DOPAMINE D2>
7.03

>  <DOPAMINE D3>
8.88

>  <DOPAMINE D4>
5

>  <DOPAMINE D5>
6

$$$$
217302
  Marvin  02231216192D 0   1.00000     0.00000     0

 31 35  0  0  0  0  0  0  0  0999 V2000
   -8.3842    0.5579    0.0000 F   0  0  0  0  0  0  0  0  0
   -8.5558   -0.2490    0.0000 C   0  0  0  0  0  0  0  0  0
   -7.9427   -0.8011    0.0000 C   0  0  0  0  0  0  0  0  0
   -8.1142   -1.6080    0.0000 C   0  0  0  0  0  0  0  0  0
   -8.8988   -1.8630    0.0000 C   0  0  0  0  0  0  0  0  0
   -8.8988   -2.6880    0.0000 N   0  0  0  0  0  0  0  0  0
   -8.1142   -2.9429    0.0000 C   0  0  0  0  0  0  0  0  0
   -7.6293   -2.2755    0.0000 C   0  0  0  0  0  0  0  0  0
   -6.8043   -2.2755    0.0000 C   0  0  0  0  0  0  0  0  0
   -6.3918   -1.5610    0.0000 C   0  0  0  0  0  0  0  0  0
   -5.5668   -1.5610    0.0000 C   0  0  0  0  0  0  0  0  0
   -5.1543   -2.2755    0.0000 N   0  0  0  0  0  0  0  0  0
   -5.5668   -2.9900    0.0000 C   0  0  0  0  0  0  0  0  0
   -6.3918   -2.9900    0.0000 C   0  0  0  0  0  0  0  0  0
   -4.3293   -2.2755    0.0000 C   0  0  0  0  0  0  0  0  0
   -3.9168   -1.5610    0.0000 C   0  0  0  0  0  0  0  0  0
   -3.0918   -1.5610    0.0000 C   0  0  0  0  0  0  0  0  0
   -2.6793   -0.8465    0.0000 C   0  0  0  0  0  0  0  0  0
   -1.8543   -0.8465    0.0000 N   0  0  0  0  0  0  0  0  0
   -1.3694   -1.5140    0.0000 C   0  0  0  0  0  0  0  0  0
   -1.6243   -2.2986    0.0000 O   0  0  0  0  0  0  0  0  0
   -0.5847   -1.2590    0.0000 C   0  0  0  0  0  0  0  0  0
   -0.5847   -0.4340    0.0000 C   0  0  0  0  0  0  0  0  0
    0.1297   -0.0215    0.0000 C   0  0  0  0  0  0  0  0  0
    0.8442   -0.4340    0.0000 C   0  0  0  0  0  0  0  0  0
    0.8442   -1.2590    0.0000 C   0  0  0  0  0  0  0  0  0
    0.1297   -1.6715    0.0000 C   0  0  0  0  0  0  0  0  0
   -1.3694   -0.1791    0.0000 C   0  0  0  0  0  0  0  0  0
   -1.6243    0.6055    0.0000 O   0  0  0  0  0  0  0  0  0
   -9.5119   -1.3110    0.0000 C   0  0  0  0  0  0  0  0  0
   -9.3404   -0.5040    0.0000 C   0  0  0  0  0  0  0  0  0
  1  2  1  0  0  0  0
  2  3  4  0  0  0  0
  2 31  4  0  0  0  0
  3  4  4  0  0  0  0
  4  5  4  0  0  0  0
  4  8  4  0  0  0  0
  5  6  4  0  0  0  0
  5 30  4  0  0  0  0
  6  7  4  0  0  0  0
  7  8  4  0  0  0  0
  8  9  1  0  0  0  0
  9 10  1  0  0  0  0
  9 14  2  0  0  0  0
 10 11  1  0  0  0  0
 11 12  1  0  0  0  0
 12 13  1  0  0  0  0
 12 15  1  0  0  0  0
 13 14  1  0  0  0  0
 15 16  1  0  0  0  0
 16 17  1  0  0  0  0
 17 18  1  0  0  0  0
 18 19  1  0  0  0  0
 19 20  1  0  0  0  0
 19 28  1  0  0  0  0
 20 21  2  0  0  0  0
 20 22  1  0  0  0  0
 22 23  4  0  0  0  0
 22 27  4  0  0  0  0
 23 24  4  0  0  0  0
 23 28  1  0  0  0  0
 24 25  4  0  0  0  0
 25 26  4  0  0  0  0
 26 27  4  0  0  0  0
 28 29  2  0  0  0  0
 30 31  4  0  0  0  0
M  STY  1   1 DAT
M  SAL   1  1   6
M  SDT   1 MRV_IMPLICIT_H                                        
M  SDD   1     0.0000    0.0000    DR    ALL  0       0  
M  SED   1 IMPL_H1
M  END
>  <Name_Molregno>
217302

>  <5-HT1A>
8.6

>  <5-HT2A>
7

>  <5-HT2C>
7.4

>  <5-HT6>
6.4

>  <5-HT7>
7

>  <DOPAMINE D3>
9.1

>  <Serotonin transporter>
9.1

$$$$
220767
  Marvin  02231216192D 0   1.00000     0.00000     0

 17 19  0  0  1  0  0  0  0  0999 V2000
   -0.0861    0.0374    0.0000 O   0  0  0  0  0  0  0  0  0
   -0.5207    0.7387    0.0000 C   0  0  0  0  0  0  0  0  0
   -0.1308    1.4657    0.0000 C   0  0  0  0  0  0  0  0  0
    0.6938    1.4915    0.0000 C   0  0  0  0  0  0  0  0  0
    1.1285    0.7902    0.0000 C   0  0  0  0  0  0  0  0  0
    1.9531    0.8160    0.0000 C   0  0  0  0  0  0  0  0  0
    2.3877    0.1147    0.0000 C   0  0  0  0  0  0  0  0  0
    3.1889    0.3114    0.0000 N   0  0  0  0  0  0  0  0  0
    3.2495    1.1342    0.0000 C   0  0  0  0  0  0  0  0  0
    2.4857    1.4460    0.0000 C   0  0  0  0  0  0  0  0  0
    2.2890    2.2472    0.0000 C   0  0  0  0  0  0  0  0  0
    2.8846    2.8181    0.0000 C   0  0  0  0  0  0  0  0  0
    2.6879    3.6194    0.0000 N   0  0  0  0  0  0  0  0  0
    3.6768    2.5878    0.0000 C   0  0  0  0  0  0  0  0  0
    1.9977   -0.6123    0.0000 C   0  0  0  0  0  0  0  0  0
    1.1731   -0.6380    0.0000 C   0  0  0  0  0  0  0  0  0
    0.7385    0.0632    0.0000 C   0  0  0  0  0  0  0  0  0
  1  2  1  0  0  0  0
  1 17  1  0  0  0  0
  2  3  1  0  0  0  0
  3  4  1  0  0  0  0
  4  5  1  0  0  0  0
  5  6  4  0  0  0  0
  5 17  4  0  0  0  0
  6  7  4  0  0  0  0
  6 10  4  0  0  0  0
  7  8  4  0  0  0  0
  7 15  4  0  0  0  0
  8  9  4  0  0  0  0
  9 10  4  0  0  0  0
 10 11  1  0  0  0  0
 11 12  1  0  0  0  0
 12 13  1  0  0  0  0
 12 14  1  0  0  0  0
 15 16  4  0  0  0  0
 16 17  4  0  0  0  0
M  STY  1   1 DAT
M  SAL   1  1   8
M  SDT   1 MRV_IMPLICIT_H                                        
M  SDD   1     0.0000    0.0000    DR    ALL  0       0  
M  SED   1 IMPL_H1
M  END
>  <Name_Molregno>
220767

>  <5-HT2A>
8.44

>  <5-HT2C>
8.14

$$$$
230589
  Marvin  02231216192D 0   1.00000     0.00000     0

 21 23  0  0  1  0  0  0  0  0999 V2000
    1.8607    2.5785    0.0000 S   0  0  0  0  0  0  0  0  0
    2.1156    3.3632    0.0000 C   0  0  0  0  0  0  0  0  0
    2.9406    3.3632    0.0000 C   0  0  0  0  0  0  0  0  0
    3.1956    2.5785    0.0000 C   0  0  0  0  0  0  0  0  0
    2.5281    2.0936    0.0000 C   0  0  0  0  0  0  0  0  0
    2.5281    1.2686    0.0000 C   0  0  0  0  0  0  0  0  0
    1.8136    0.8561    0.0000 O   0  0  0  0  0  0  0  0  0
    1.8136    0.0311    0.0000 C   0  0  0  0  0  0  0  0  0
    1.0992   -0.3814    0.0000 C   0  0  0  0  0  0  0  0  0
    1.0992   -1.2064    0.0000 C   0  0  0  0  0  0  0  0  0
    1.8136   -1.6189    0.0000 C   0  0  0  0  0  0  0  0  0
    2.5281   -1.2064    0.0000 C   0  0  0  0  0  0  0  0  0
    2.5281   -0.3814    0.0000 C   0  0  0  0  0  0  0  0  0
    0.3847   -1.6189    0.0000 C   0  0  0  0  0  0  0  0  0
   -0.3298   -1.2064    0.0000 C   0  0  0  0  0  0  0  0  0
   -0.3298   -0.3814    0.0000 C   0  0  0  0  0  0  0  0  0
    0.3847    0.0311    0.0000 C   0  0  0  0  0  0  0  0  0
    3.2426    0.8561    0.0000 C   0  0  0  0  0  0  0  0  0
    3.9571    1.2686    0.0000 C   0  0  0  0  0  0  0  0  0
    4.6715    0.8561    0.0000 N   0  0  0  0  0  0  0  0  0
    4.6715    0.0311    0.0000 C   0  0  0  0  0  0  0  0  0
  1  2  4  0  0  0  0
  1  5  4  0  0  0  0
  2  3  4  0  0  0  0
  3  4  4  0  0  0  0
  4  5  4  0  0  0  0
  5  6  1  0  0  0  0
  6  7  1  0  0  0  0
  6 18  1  0  0  0  0
  7  8  1  0  0  0  0
  8  9  4  0  0  0  0
  8 13  4  0  0  0  0
  9 10  4  0  0  0  0
  9 17  4  0  0  0  0
 10 11  4  0  0  0  0
 10 14  4  0  0  0  0
 11 12  4  0  0  0  0
 12 13  4  0  0  0  0
 14 15  4  0  0  0  0
 15 16  4  0  0  0  0
 16 17  4  0  0  0  0
 18 19  1  0  0  0  0
 19 20  1  0  0  0  0
 20 21  1  0  0  0  0
M  END
>  <Name_Molregno>
230589

>  <5-HT1A>
5.3

>  <5-HT1B>
5.4

>  <5-HT1D>
5.52

>  <5-HT1E>
5.43

>  <5-HT2A>
6.3

>  <5-HT2C>
6.04

>  <5-HT6>
6.38

>  <5-HT7>
5.65

>  <Alpha-2A>
6

>  <DOPAMINE D2>
5

>  <Dopamine transporter>
6.24

>  <HISTAMINE H1>
5.64

>  <Muscarinic acetylcholine receptor M1>
6

>  <Muscarinic acetylcholine receptor M2>
6

>  <Norepinephrine transporter>
7.53

>  <Serotonin transporter>
8.48

$$$$
232974
  Marvin  02231216192D 0   1.00000     0.00000     0

 24 26  0  0  0  0  0  0  0  0999 V2000
    0.1578    2.6676    0.0000 F   0  0  0  0  0  0  0  0  0
    0.8723    2.2551    0.0000 C   0  0  0  0  0  0  0  0  0
    1.5868    2.6676    0.0000 C   0  0  0  0  0  0  0  0  0
    2.3013    2.2551    0.0000 C   0  0  0  0  0  0  0  0  0
    2.3013    1.4301    0.0000 C   0  0  0  0  0  0  0  0  0
    1.5868    1.0176    0.0000 C   0  0  0  0  0  0  0  0  0
    0.8723    1.4301    0.0000 C   0  0  0  0  0  0  0  0  0
    3.0157    1.0176    0.0000 C   0  0  0  0  0  0  0  0  0
    3.0157    0.1926    0.0000 O   0  0  0  0  0  0  0  0  0
    3.7302    1.4301    0.0000 C   0  0  0  0  0  0  0  0  0
    4.4447    1.0176    0.0000 C   0  0  0  0  0  0  0  0  0
    5.1591    1.4301    0.0000 C   0  0  0  0  0  0  0  0  0
    5.8736    1.0176    0.0000 N   0  0  0  0  0  0  0  0  0
    6.5881    1.4301    0.0000 C   0  0  0  0  0  0  0  0  0
    7.3026    1.0176    0.0000 C   0  0  0  0  0  0  0  0  0
    7.3026    0.1926    0.0000 N   0  0  0  0  0  0  0  0  0
    6.5881   -0.2199    0.0000 C   0  0  0  0  0  0  0  0  0
    5.8736    0.1926    0.0000 C   0  0  0  0  0  0  0  0  0
    8.0170   -0.2199    0.0000 C   0  0  0  0  0  0  0  0  0
    8.7315    0.1926    0.0000 N   0  0  0  0  0  0  0  0  0
    9.4460   -0.2199    0.0000 C   0  0  0  0  0  0  0  0  0
    9.4460   -1.0449    0.0000 C   0  0  0  0  0  0  0  0  0
    8.7315   -1.4574    0.0000 C   0  0  0  0  0  0  0  0  0
    8.0170   -1.0449    0.0000 N   0  0  0  0  0  0  0  0  0
  1  2  1  0  0  0  0
  2  3  4  0  0  0  0
  2  7  4  0  0  0  0
  3  4  4  0  0  0  0
  4  5  4  0  0  0  0
  5  6  4  0  0  0  0
  5  8  1  0  0  0  0
  6  7  4  0  0  0  0
  8  9  2  0  0  0  0
  8 10  1  0  0  0  0
 10 11  1  0  0  0  0
 11 12  1  0  0  0  0
 12 13  1  0  0  0  0
 13 14  1  0  0  0  0
 13 18  1  0  0  0  0
 14 15  1  0  0  0  0
 15 16  1  0  0  0  0
 16 17  1  0  0  0  0
 16 19  1  0  0  0  0
 17 18  1  0  0  0  0
 19 20  4  0  0  0  0
 19 24  4  0  0  0  0
 20 21  4  0  0  0  0
 21 22  4  0  0  0  0
 22 23  4  0  0  0  0
 23 24  4  0  0  0  0
M  END
>  <Name_Molregno>
232974

>  <5-HT1A>
7.52

>  <5-HT2A>
7.66

>  <5-HT2C>
5.38

>  <DOPAMINE D2>
7.01

>  <DOPAMINE D3>
6.61

>  <DOPAMINE D4>
8.19

>  <HISTAMINE H1>
6.04

$$$$
237774
  Marvin  02231216192D 0   1.00000     0.00000     0

 26 29  0  0  1  0  0  0  0  0999 V2000
    9.2715    1.8322    0.0000 F   0  0  0  0  0  0  0  0  0
    8.5570    1.4197    0.0000 C   0  0  0  0  0  0  0  0  0
    8.5570    0.5947    0.0000 C   0  0  0  0  0  0  0  0  0
    7.8425    0.1822    0.0000 C   0  0  0  0  0  0  0  0  0
    7.1280    0.5947    0.0000 C   0  0  0  0  0  0  0  0  0
    7.1280    1.4197    0.0000 C   0  0  0  0  0  0  0  0  0
    7.8425    1.8322    0.0000 C   0  0  0  0  0  0  0  0  0
    6.4136    0.1822    0.0000 C   0  0  0  0  0  0  0  0  0
    6.4136   -0.6428    0.0000 O   0  0  0  0  0  0  0  0  0
    5.6991    0.5947    0.0000 C   0  0  0  0  0  0  0  0  0
    4.9846    0.1822    0.0000 C   0  0  0  0  0  0  0  0  0
    4.2702    0.5947    0.0000 C   0  0  0  0  0  0  0  0  0
    4.2702    1.4197    0.0000 N   0  0  0  0  0  0  0  0  0
    4.9846    1.8322    0.0000 C   0  0  0  0  0  0  0  0  0
    5.6991    1.4197    0.0000 C   0  0  0  0  0  0  0  0  0
    3.5557    1.8322    0.0000 C   0  0  0  0  0  0  0  0  0
    2.8412    1.4197    0.0000 C   0  0  0  0  0  0  0  0  0
    2.8412    0.5947    0.0000 C   0  0  0  0  0  0  0  0  0
    2.1267    0.1822    0.0000 C   0  0  0  0  0  0  0  0  0
    2.1267   -0.6428    0.0000 O   0  0  0  0  0  0  0  0  0
    1.4123    0.5947    0.0000 C   0  0  0  0  0  0  0  0  0
    1.4123    1.4197    0.0000 C   0  0  0  0  0  0  0  0  0
    0.6277    1.6746    0.0000 O   0  0  0  0  0  0  0  0  0
    0.1427    1.0072    0.0000 C   0  0  0  0  0  0  0  0  0
    0.6277    0.3397    0.0000 C   0  0  0  0  0  0  0  0  0
    2.1267    1.8322    0.0000 C   0  0  0  0  0  0  0  0  0
  1  2  1  0  0  0  0
  2  3  4  0  0  0  0
  2  7  4  0  0  0  0
  3  4  4  0  0  0  0
  4  5  4  0  0  0  0
  5  6  4  0  0  0  0
  5  8  1  0  0  0  0
  6  7  4  0  0  0  0
  8  9  2  0  0  0  0
  8 10  1  0  0  0  0
 10 11  1  0  0  0  0
 10 15  1  0  0  0  0
 11 12  1  0  0  0  0
 12 13  1  0  0  0  0
 13 14  1  0  0  0  0
 13 16  1  0  0  0  0
 14 15  1  0  0  0  0
 16 17  1  0  0  0  0
 17 18  1  0  0  0  0
 17 26  1  0  0  0  0
 18 19  1  0  0  0  0
 19 20  2  0  0  0  0
 19 21  1  0  0  0  0
 21 22  4  0  0  0  0
 21 25  4  0  0  0  0
 22 23  4  0  0  0  0
 22 26  1  0  0  0  0
 23 24  4  0  0  0  0
 24 25  4  0  0  0  0
M  END
>  <Name_Molregno>
237774

>  <5-HT2A>
7.15

>  <5-HT2C>
5.81

>  <DOPAMINE D2>
6.82

$$$$
237775
  Marvin  02231216192D 0   1.00000     0.00000     0

 27 31  0  0  1  0  0  0  0  0999 V2000
    9.5871   -0.2799    0.0000 F   0  0  0  0  0  0  0  0  0
    8.7801   -0.4514    0.0000 C   0  0  0  0  0  0  0  0  0
    8.5252   -1.2360    0.0000 C   0  0  0  0  0  0  0  0  0
    7.7182   -1.4075    0.0000 C   0  0  0  0  0  0  0  0  0
    7.3057   -2.1220    0.0000 O   0  0  0  0  0  0  0  0  0
    6.4988   -1.9505    0.0000 N   0  0  0  0  0  0  0  0  0
    6.4125   -1.1300    0.0000 C   0  0  0  0  0  0  0  0  0
    7.1662   -0.7944    0.0000 C   0  0  0  0  0  0  0  0  0
    7.4211   -0.0098    0.0000 C   0  0  0  0  0  0  0  0  0
    8.2281    0.1617    0.0000 C   0  0  0  0  0  0  0  0  0
    5.6981   -0.7175    0.0000 C   0  0  0  0  0  0  0  0  0
    4.9836   -1.1300    0.0000 C   0  0  0  0  0  0  0  0  0
    4.2691   -0.7175    0.0000 C   0  0  0  0  0  0  0  0  0
    4.2691    0.1075    0.0000 N   0  0  0  0  0  0  0  0  0
    4.9836    0.5200    0.0000 C   0  0  0  0  0  0  0  0  0
    5.6981    0.1075    0.0000 C   0  0  0  0  0  0  0  0  0
    3.5546    0.5200    0.0000 C   0  0  0  0  0  0  0  0  0
    2.8402    0.1075    0.0000 C   0  0  0  0  0  0  0  0  0
    2.8402   -0.7175    0.0000 C   0  0  0  0  0  0  0  0  0
    2.1257   -1.1300    0.0000 C   0  0  0  0  0  0  0  0  0
    2.1257   -1.9550    0.0000 O   0  0  0  0  0  0  0  0  0
    1.4112   -0.7175    0.0000 C   0  0  0  0  0  0  0  0  0
    1.4112    0.1075    0.0000 C   0  0  0  0  0  0  0  0  0
    0.6266    0.3624    0.0000 O   0  0  0  0  0  0  0  0  0
    0.1417   -0.3050    0.0000 C   0  0  0  0  0  0  0  0  0
    0.6266   -0.9724    0.0000 C   0  0  0  0  0  0  0  0  0
    2.1257    0.5200    0.0000 C   0  0  0  0  0  0  0  0  0
  1  2  1  0  0  0  0
  2  3  4  0  0  0  0
  2 10  4  0  0  0  0
  3  4  4  0  0  0  0
  4  5  4  0  0  0  0
  4  8  4  0  0  0  0
  5  6  4  0  0  0  0
  6  7  4  0  0  0  0
  7  8  4  0  0  0  0
  7 11  1  0  0  0  0
  8  9  4  0  0  0  0
  9 10  4  0  0  0  0
 11 12  1  0  0  0  0
 11 16  1  0  0  0  0
 12 13  1  0  0  0  0
 13 14  1  0  0  0  0
 14 15  1  0  0  0  0
 14 17  1  0  0  0  0
 15 16  1  0  0  0  0
 17 18  1  0  0  0  0
 18 19  1  0  0  0  0
 18 27  1  0  0  0  0
 19 20  1  0  0  0  0
 20 21  2  0  0  0  0
 20 22  1  0  0  0  0
 22 23  4  0  0  0  0
 22 26  4  0  0  0  0
 23 24  4  0  0  0  0
 23 27  1  0  0  0  0
 24 25  4  0  0  0  0
 25 26  4  0  0  0  0
M  END
>  <Name_Molregno>
237775

>  <5-HT2A>
8.28

>  <5-HT2C>
6.5

>  <DOPAMINE D2>
7.66

$$$$
244233
  Marvin  02231216192D 0   1.00000     0.00000     0

 26 28  0  0  0  0  0  0  0  0999 V2000
   -1.4737    1.5229    0.0000 S   0  0  0  0  0  0  0  0  0
   -0.6487    1.5229    0.0000 O   0  0  0  0  0  0  0  0  0
   -2.2987    1.5229    0.0000 O   0  0  0  0  0  0  0  0  0
   -1.4737    0.6979    0.0000 C   0  0  0  0  0  0  0  0  0
   -0.7592    0.2854    0.0000 C   0  0  0  0  0  0  0  0  0
   -0.7592   -0.5396    0.0000 C   0  0  0  0  0  0  0  0  0
   -1.4737   -0.9521    0.0000 N   0  0  0  0  0  0  0  0  0
   -2.1881   -0.5396    0.0000 C   0  0  0  0  0  0  0  0  0
   -2.1881    0.2854    0.0000 C   0  0  0  0  0  0  0  0  0
   -1.4737   -1.7771    0.0000 C   0  0  0  0  0  0  0  0  0
   -2.1881   -2.1896    0.0000 C   0  0  0  0  0  0  0  0  0
   -2.1881   -3.0146    0.0000 C   0  0  0  0  0  0  0  0  0
   -1.4737   -3.4271    0.0000 C   0  0  0  0  0  0  0  0  0
   -1.4737   -4.2521    0.0000 C   0  0  0  0  0  0  0  0  0
   -2.1881   -4.6646    0.0000 C   0  0  0  0  0  0  0  0  0
   -2.1881   -5.4896    0.0000 F   0  0  0  0  0  0  0  0  0
   -2.9026   -4.2521    0.0000 C   0  0  0  0  0  0  0  0  0
   -2.9026   -3.4271    0.0000 C   0  0  0  0  0  0  0  0  0
   -3.6171   -3.0146    0.0000 F   0  0  0  0  0  0  0  0  0
   -1.4737    2.3479    0.0000 C   0  0  0  0  0  0  0  0  0
   -2.1881    2.7604    0.0000 C   0  0  0  0  0  0  0  0  0
   -2.1881    3.5854    0.0000 C   0  0  0  0  0  0  0  0  0
   -1.4737    3.9979    0.0000 C   0  0  0  0  0  0  0  0  0
   -1.4737    4.8229    0.0000 F   0  0  0  0  0  0  0  0  0
   -0.7592    3.5854    0.0000 C   0  0  0  0  0  0  0  0  0
   -0.7592    2.7604    0.0000 C   0  0  0  0  0  0  0  0  0
  1  2  2  0  0  0  0
  1  3  2  0  0  0  0
  1  4  1  0  0  0  0
  1 20  1  0  0  0  0
  4  5  1  0  0  0  0
  4  9  1  0  0  0  0
  5  6  1  0  0  0  0
  6  7  1  0  0  0  0
  7  8  1  0  0  0  0
  7 10  1  0  0  0  0
  8  9  1  0  0  0  0
 10 11  1  0  0  0  0
 11 12  1  0  0  0  0
 12 13  4  0  0  0  0
 12 18  4  0  0  0  0
 13 14  4  0  0  0  0
 14 15  4  0  0  0  0
 15 16  1  0  0  0  0
 15 17  4  0  0  0  0
 17 18  4  0  0  0  0
 18 19  1  0  0  0  0
 20 21  4  0  0  0  0
 20 26  4  0  0  0  0
 21 22  4  0  0  0  0
 22 23  4  0  0  0  0
 23 24  1  0  0  0  0
 23 25  4  0  0  0  0
 25 26  4  0  0  0  0
M  END
>  <Name_Molregno>
244233

>  <5-HT2A>
9.38

>  <5-HT2C>
7.16

>  <DOPAMINE D2>
5.91

$$$$
244895
  Marvin  02231216192D 0   1.00000     0.00000     0

 25 27  0  0  0  0  0  0  0  0999 V2000
   -1.6637    1.7317    0.0000 S   0  0  0  0  0  0  0  0  0
   -0.8387    1.7317    0.0000 O   0  0  0  0  0  0  0  0  0
   -2.4887    1.7317    0.0000 O   0  0  0  0  0  0  0  0  0
   -1.6637    0.9067    0.0000 C   0  0  0  0  0  0  0  0  0
   -0.9492    0.4942    0.0000 C   0  0  0  0  0  0  0  0  0
   -0.9492   -0.3308    0.0000 C   0  0  0  0  0  0  0  0  0
   -1.6637   -0.7433    0.0000 N   0  0  0  0  0  0  0  0  0
   -2.3781   -0.3308    0.0000 C   0  0  0  0  0  0  0  0  0
   -2.3781    0.4942    0.0000 C   0  0  0  0  0  0  0  0  0
   -1.6637   -1.5683    0.0000 C   0  0  0  0  0  0  0  0  0
   -2.3781   -1.9808    0.0000 C   0  0  0  0  0  0  0  0  0
   -2.3781   -2.8058    0.0000 C   0  0  0  0  0  0  0  0  0
   -1.6637   -3.2183    0.0000 C   0  0  0  0  0  0  0  0  0
   -1.6637   -4.0433    0.0000 C   0  0  0  0  0  0  0  0  0
   -2.3781   -4.4558    0.0000 C   0  0  0  0  0  0  0  0  0
   -2.3781   -5.2808    0.0000 F   0  0  0  0  0  0  0  0  0
   -3.0926   -4.0433    0.0000 C   0  0  0  0  0  0  0  0  0
   -3.0926   -3.2183    0.0000 C   0  0  0  0  0  0  0  0  0
   -3.8071   -2.8058    0.0000 F   0  0  0  0  0  0  0  0  0
   -1.6637    2.5567    0.0000 C   0  0  0  0  0  0  0  0  0
   -2.3781    2.9692    0.0000 C   0  0  0  0  0  0  0  0  0
   -2.3781    3.7942    0.0000 C   0  0  0  0  0  0  0  0  0
   -1.6637    4.2067    0.0000 C   0  0  0  0  0  0  0  0  0
   -0.9492    3.7942    0.0000 C   0  0  0  0  0  0  0  0  0
   -0.9492    2.9692    0.0000 C   0  0  0  0  0  0  0  0  0
  1  2  2  0  0  0  0
  1  3  2  0  0  0  0
  1  4  1  0  0  0  0
  1 20  1  0  0  0  0
  4  5  1  0  0  0  0
  4  9  1  0  0  0  0
  5  6  1  0  0  0  0
  6  7  1  0  0  0  0
  7  8  1  0  0  0  0
  7 10  1  0  0  0  0
  8  9  1  0  0  0  0
 10 11  1  0  0  0  0
 11 12  1  0  0  0  0
 12 13  4  0  0  0  0
 12 18  4  0  0  0  0
 13 14  4  0  0  0  0
 14 15  4  0  0  0  0
 15 16  1  0  0  0  0
 15 17  4  0  0  0  0
 17 18  4  0  0  0  0
 18 19  1  0  0  0  0
 20 21  4  0  0  0  0
 20 25  4  0  0  0  0
 21 22  4  0  0  0  0
 22 23  4  0  0  0  0
 23 24  4  0  0  0  0
 24 25  4  0  0  0  0
M  END
>  <Name_Molregno>
244895

>  <5-HT2A>
9.48

>  <5-HT2C>
7.6

>  <DOPAMINE D2>
5.82

$$$$
245433
  Marvin  02231216192D 0   1.00000     0.00000     0

 25 27  0  0  1  0  0  0  0  0999 V2000
    0.3559    2.6179    0.0000 Cl  0  0  0  0  0  0  0  0  0
    1.0234    2.1329    0.0000 C   0  0  0  0  0  0  0  0  0
    1.7770    2.4685    0.0000 C   0  0  0  0  0  0  0  0  0
    2.4445    1.9836    0.0000 C   0  0  0  0  0  0  0  0  0
    2.3582    1.1631    0.0000 C   0  0  0  0  0  0  0  0  0
    1.6046    0.8275    0.0000 C   0  0  0  0  0  0  0  0  0
    0.9371    1.3125    0.0000 C   0  0  0  0  0  0  0  0  0
    3.0257    0.6782    0.0000 C   0  0  0  0  0  0  0  0  0
    2.4736    0.0651    0.0000 O   0  0  0  0  0  0  0  0  0
    3.4382    1.3926    0.0000 C   0  0  0  0  0  0  0  0  0
    4.2451    1.2211    0.0000 C   0  0  0  0  0  0  0  0  0
    4.3314    0.4006    0.0000 N   0  0  0  0  0  0  0  0  0
    3.5777    0.0651    0.0000 C   0  0  0  0  0  0  0  0  0
    5.0459   -0.0119    0.0000 C   0  0  0  0  0  0  0  0  0
    5.7603    0.4006    0.0000 C   0  0  0  0  0  0  0  0  0
    6.4748   -0.0119    0.0000 C   0  0  0  0  0  0  0  0  0
    7.1893    0.4006    0.0000 C   0  0  0  0  0  0  0  0  0
    7.1893    1.2256    0.0000 O   0  0  0  0  0  0  0  0  0
    7.9037   -0.0119    0.0000 C   0  0  0  0  0  0  0  0  0
    8.6182    0.4006    0.0000 C   0  0  0  0  0  0  0  0  0
    9.3327   -0.0119    0.0000 C   0  0  0  0  0  0  0  0  0
    9.3327   -0.8369    0.0000 C   0  0  0  0  0  0  0  0  0
   10.0472   -1.2494    0.0000 F   0  0  0  0  0  0  0  0  0
    8.6182   -1.2494    0.0000 C   0  0  0  0  0  0  0  0  0
    7.9037   -0.8369    0.0000 C   0  0  0  0  0  0  0  0  0
  1  2  1  0  0  0  0
  2  3  4  0  0  0  0
  2  7  4  0  0  0  0
  3  4  4  0  0  0  0
  4  5  4  0  0  0  0
  5  6  4  0  0  0  0
  5  8  1  0  0  0  0
  6  7  4  0  0  0  0
  8  9  1  0  0  0  0
  8 10  1  0  0  0  0
  8 13  1  0  0  0  0
 10 11  1  0  0  0  0
 11 12  1  0  0  0  0
 12 13  1  0  0  0  0
 12 14  1  0  0  0  0
 14 15  1  0  0  0  0
 15 16  1  0  0  0  0
 16 17  1  0  0  0  0
 17 18  2  0  0  0  0
 17 19  1  0  0  0  0
 19 20  4  0  0  0  0
 19 25  4  0  0  0  0
 20 21  4  0  0  0  0
 21 22  4  0  0  0  0
 22 23  1  0  0  0  0
 22 24  4  0  0  0  0
 24 25  4  0  0  0  0
M  END
>  <Name_Molregno>
245433

>  <5-HT1A>
6.1

>  <5-HT2A>
6.87

>  <5-HT2C>
5.67

>  <Alpha-1A>
7.2

>  <Alpha-1B>
7.18

>  <Alpha-2A>
5.44

>  <Alpha-2B>
5.58

>  <Alpha-2C>
7.41

>  <DOPAMINE D2>
7.07

>  <DOPAMINE D3>
6.45

>  <DOPAMINE D4>
7.7

>  <HISTAMINE H1>
6.21

$$$$
259724
  Marvin  02231216192D 0   1.00000     0.00000     0

 18 20  0  0  1  0  0  0  0  0999 V2000
    0.3094   -0.9505    0.0000 N   0  0  0  0  0  0  0  0  0
    1.0239   -0.5380    0.0000 C   0  0  0  0  0  0  0  0  0
    1.7384   -0.9505    0.0000 C   0  0  0  0  0  0  0  0  0
    2.4528   -0.5380    0.0000 C   0  0  0  0  0  0  0  0  0
    2.4528    0.2870    0.0000 C   0  0  0  0  0  0  0  0  0
    3.1673    0.6995    0.0000 N   0  0  0  0  0  0  0  0  0
    3.8818    0.2870    0.0000 C   0  0  0  0  0  0  0  0  0
    3.8818   -0.5380    0.0000 C   0  0  0  0  0  0  0  0  0
    3.1673   -0.9505    0.0000 C   0  0  0  0  0  0  0  0  0
    3.1673    1.5245    0.0000 C   0  0  0  0  0  0  0  0  0
    3.8818    1.9370    0.0000 C   0  0  0  0  0  0  0  0  0
    3.8818    2.7620    0.0000 C   0  0  0  0  0  0  0  0  0
    1.7384    0.6995    0.0000 C   0  0  0  0  0  0  0  0  0
    1.0239    0.2870    0.0000 C   0  0  0  0  0  0  0  0  0
    0.3094    0.6995    0.0000 C   0  0  0  0  0  0  0  0  0
   -0.4050    0.2870    0.0000 N   0  0  0  0  0  0  0  0  0
   -0.4050   -0.5380    0.0000 C   0  0  0  0  0  0  0  0  0
   -1.1195   -0.9505    0.0000 N   0  0  0  0  0  0  0  0  0
  1  2  4  0  0  0  0
  1 17  4  0  0  0  0
  2  3  1  0  0  0  0
  2 14  4  0  0  0  0
  3  4  1  0  0  0  0
  4  5  1  0  0  0  0
  4  9  1  0  0  0  0
  5  6  1  0  0  0  0
  5 13  1  0  0  0  0
  6  7  1  0  0  0  0
  6 10  1  0  0  0  0
  7  8  1  0  0  0  0
  8  9  1  0  0  0  0
 10 11  1  0  0  0  0
 11 12  1  0  0  0  0
 13 14  1  0  0  0  0
 14 15  4  0  0  0  0
 15 16  4  0  0  0  0
 16 17  4  0  0  0  0
 17 18  1  0  0  0  0
M  END
>  <Name_Molregno>
259724

>  <5-HT1A>
5

>  <5-HT1B>
5

>  <5-HT1D>
5

>  <5-HT2A>
5

>  <5-HT2C>
5.58

>  <Alpha-1A>
5

>  <Alpha-1B>
5

>  <Alpha-2A>
5

>  <Alpha-2B>
5

>  <Alpha-2C>
5

>  <Beta-1>
5

>  <Beta-2>
5

>  <DOPAMINE D1>
5

>  <DOPAMINE D2>
6.33

>  <DOPAMINE D3>
8.65

>  <DOPAMINE D4>
7.72

>  <DOPAMINE D5>
5

$$$$
264614
  Marvin  02231216192D 0   1.00000     0.00000     0

 17 19  0  0  0  0  0  0  0  0999 V2000
    0.0196   -4.9344    0.0000 N   0  0  0  0  0  0  0  0  0
    0.0196   -4.1094    0.0000 C   0  0  0  0  0  0  0  0  0
   -0.6948   -3.6969    0.0000 C   0  0  0  0  0  0  0  0  0
   -0.6948   -2.8719    0.0000 C   0  0  0  0  0  0  0  0  0
    0.0196   -2.4594    0.0000 C   0  0  0  0  0  0  0  0  0
    0.0196   -1.6344    0.0000 C   0  0  0  0  0  0  0  0  0
   -0.6948   -1.2219    0.0000 C   0  0  0  0  0  0  0  0  0
   -1.4093   -1.6344    0.0000 C   0  0  0  0  0  0  0  0  0
   -1.4093   -2.4594    0.0000 C   0  0  0  0  0  0  0  0  0
   -2.1238   -2.8719    0.0000 C   0  0  0  0  0  0  0  0  0
   -2.8382   -2.4594    0.0000 C   0  0  0  0  0  0  0  0  0
   -2.8382   -1.6344    0.0000 C   0  0  0  0  0  0  0  0  0
   -2.1238   -1.2219    0.0000 C   0  0  0  0  0  0  0  0  0
    0.7341   -1.2219    0.0000 C   0  0  0  0  0  0  0  0  0
    1.4486   -1.6344    0.0000 C   0  0  0  0  0  0  0  0  0
    1.4486   -2.4594    0.0000 C   0  0  0  0  0  0  0  0  0
    0.7341   -2.8719    0.0000 C   0  0  0  0  0  0  0  0  0
  1  2  1  0  0  0  0
  2  3  1  0  0  0  0
  3  4  1  0  0  0  0
  4  5  1  0  0  0  0
  4  9  1  0  0  0  0
  5  6  4  0  0  0  0
  5 17  4  0  0  0  0
  6  7  1  0  0  0  0
  6 14  4  0  0  0  0
  7  8  1  0  0  0  0
  8  9  4  0  0  0  0
  8 13  4  0  0  0  0
  9 10  4  0  0  0  0
 10 11  4  0  0  0  0
 11 12  4  0  0  0  0
 12 13  4  0  0  0  0
 14 15  4  0  0  0  0
 15 16  4  0  0  0  0
 16 17  4  0  0  0  0
M  END
>  <Name_Molregno>
264614

>  <5-HT2A>
6.32

>  <HISTAMINE H1>
6.86

$$$$
264710
  Marvin  02231216192D 0   1.00000     0.00000     0

 19 21  0  0  0  0  0  0  0  0999 V2000
   -0.5539   -1.8083    0.0000 N   0  0  0  0  0  0  0  0  0
    0.1606   -2.2208    0.0000 C   0  0  0  0  0  0  0  0  0
    0.8750   -1.8083    0.0000 C   0  0  0  0  0  0  0  0  0
    1.5895   -2.2208    0.0000 C   0  0  0  0  0  0  0  0  0
    2.3040   -1.8083    0.0000 C   0  0  0  0  0  0  0  0  0
    3.0185   -2.2208    0.0000 C   0  0  0  0  0  0  0  0  0
    3.7329   -1.8083    0.0000 C   0  0  0  0  0  0  0  0  0
    3.7329   -0.9833    0.0000 C   0  0  0  0  0  0  0  0  0
    3.0185   -0.5708    0.0000 C   0  0  0  0  0  0  0  0  0
    2.3040   -0.9833    0.0000 C   0  0  0  0  0  0  0  0  0
    1.5895   -0.5708    0.0000 C   0  0  0  0  0  0  0  0  0
    1.5895    0.2542    0.0000 C   0  0  0  0  0  0  0  0  0
    2.3040    0.6667    0.0000 C   0  0  0  0  0  0  0  0  0
    3.0185    0.2542    0.0000 C   0  0  0  0  0  0  0  0  0
    4.4474   -2.2208    0.0000 C   0  0  0  0  0  0  0  0  0
    4.4474   -3.0458    0.0000 C   0  0  0  0  0  0  0  0  0
    3.7329   -3.4583    0.0000 C   0  0  0  0  0  0  0  0  0
    3.0185   -3.0458    0.0000 C   0  0  0  0  0  0  0  0  0
   -1.2684   -2.2208    0.0000 C   0  0  0  0  0  0  0  0  0
  1  2  1  0  0  0  0
  1 19  1  0  0  0  0
  2  3  1  0  0  0  0
  3  4  1  0  0  0  0
  4  5  1  0  0  0  0
  5  6  1  0  0  0  0
  5 10  1  0  0  0  0
  6  7  4  0  0  0  0
  6 18  4  0  0  0  0
  7  8  1  0  0  0  0
  7 15  4  0  0  0  0
  8  9  1  0  0  0  0
  9 10  4  0  0  0  0
  9 14  4  0  0  0  0
 10 11  4  0  0  0  0
 11 12  4  0  0  0  0
 12 13  4  0  0  0  0
 13 14  4  0  0  0  0
 15 16  4  0  0  0  0
 16 17  4  0  0  0  0
 17 18  4  0  0  0  0
M  END
>  <Name_Molregno>
264710

>  <5-HT2A>
7.89

>  <HISTAMINE H1>
8.52

$$$$
264711
  Marvin  02231216192D 0   1.00000     0.00000     0

 18 20  0  0  0  0  0  0  0  0999 V2000
    3.6736   -4.4613    0.0000 N   0  0  0  0  0  0  0  0  0
    2.9591   -4.0488    0.0000 C   0  0  0  0  0  0  0  0  0
    2.9591   -3.2238    0.0000 C   0  0  0  0  0  0  0  0  0
    2.2446   -2.8113    0.0000 C   0  0  0  0  0  0  0  0  0
    2.2446   -1.9863    0.0000 C   0  0  0  0  0  0  0  0  0
    2.9591   -1.5738    0.0000 C   0  0  0  0  0  0  0  0  0
    2.9591   -0.7488    0.0000 C   0  0  0  0  0  0  0  0  0
    2.2446   -0.3363    0.0000 C   0  0  0  0  0  0  0  0  0
    1.5302   -0.7488    0.0000 C   0  0  0  0  0  0  0  0  0
    1.5302   -1.5738    0.0000 C   0  0  0  0  0  0  0  0  0
    0.8157   -1.9863    0.0000 C   0  0  0  0  0  0  0  0  0
    0.1012   -1.5738    0.0000 C   0  0  0  0  0  0  0  0  0
    0.1012   -0.7488    0.0000 C   0  0  0  0  0  0  0  0  0
    0.8157   -0.3363    0.0000 C   0  0  0  0  0  0  0  0  0
    3.6736   -0.3363    0.0000 C   0  0  0  0  0  0  0  0  0
    4.3880   -0.7488    0.0000 C   0  0  0  0  0  0  0  0  0
    4.3880   -1.5738    0.0000 C   0  0  0  0  0  0  0  0  0
    3.6736   -1.9863    0.0000 C   0  0  0  0  0  0  0  0  0
  1  2  1  0  0  0  0
  2  3  1  0  0  0  0
  3  4  1  0  0  0  0
  4  5  1  0  0  0  0
  5  6  1  0  0  0  0
  5 10  1  0  0  0  0
  6  7  4  0  0  0  0
  6 18  4  0  0  0  0
  7  8  1  0  0  0  0
  7 15  4  0  0  0  0
  8  9  1  0  0  0  0
  9 10  4  0  0  0  0
  9 14  4  0  0  0  0
 10 11  4  0  0  0  0
 11 12  4  0  0  0  0
 12 13  4  0  0  0  0
 13 14  4  0  0  0  0
 15 16  4  0  0  0  0
 16 17  4  0  0  0  0
 17 18  4  0  0  0  0
M  END
>  <Name_Molregno>
264711

>  <5-HT2A>
7.49

>  <HISTAMINE H1>
6.76

$$$$
264712
  Marvin  02231216192D 0   1.00000     0.00000     0

 23 26  0  0  0  0  0  0  0  0999 V2000
    0.3775   -0.1710    0.0000 N   0  0  0  0  0  0  0  0  0
    1.0920    0.2415    0.0000 C   0  0  0  0  0  0  0  0  0
    1.0920    1.0665    0.0000 C   0  0  0  0  0  0  0  0  0
    1.8064    1.4790    0.0000 C   0  0  0  0  0  0  0  0  0
    1.8064    2.3040    0.0000 C   0  0  0  0  0  0  0  0  0
    1.0920    2.7165    0.0000 C   0  0  0  0  0  0  0  0  0
    0.3775    2.3040    0.0000 C   0  0  0  0  0  0  0  0  0
    0.3775    1.4790    0.0000 C   0  0  0  0  0  0  0  0  0
   -0.3370    1.0665    0.0000 C   0  0  0  0  0  0  0  0  0
   -1.0515    1.4790    0.0000 C   0  0  0  0  0  0  0  0  0
   -1.0515    2.3040    0.0000 C   0  0  0  0  0  0  0  0  0
   -0.3370    2.7165    0.0000 C   0  0  0  0  0  0  0  0  0
    2.5209    2.7165    0.0000 C   0  0  0  0  0  0  0  0  0
    3.2354    2.3040    0.0000 C   0  0  0  0  0  0  0  0  0
    3.2354    1.4790    0.0000 C   0  0  0  0  0  0  0  0  0
    2.5209    1.0665    0.0000 C   0  0  0  0  0  0  0  0  0
    0.3775   -0.9960    0.0000 C   0  0  0  0  0  0  0  0  0
   -0.3370   -1.4085    0.0000 C   0  0  0  0  0  0  0  0  0
   -0.3370   -2.2335    0.0000 C   0  0  0  0  0  0  0  0  0
   -1.0515   -2.6460    0.0000 C   0  0  0  0  0  0  0  0  0
   -1.7659   -2.2335    0.0000 C   0  0  0  0  0  0  0  0  0
   -1.7659   -1.4085    0.0000 C   0  0  0  0  0  0  0  0  0
   -1.0515   -0.9960    0.0000 C   0  0  0  0  0  0  0  0  0
  1  2  1  0  0  0  0
  1 17  1  0  0  0  0
  2  3  1  0  0  0  0
  3  4  1  0  0  0  0
  3  8  1  0  0  0  0
  4  5  4  0  0  0  0
  4 16  4  0  0  0  0
  5  6  1  0  0  0  0
  5 13  4  0  0  0  0
  6  7  1  0  0  0  0
  7  8  4  0  0  0  0
  7 12  4  0  0  0  0
  8  9  4  0  0  0  0
  9 10  4  0  0  0  0
 10 11  4  0  0  0  0
 11 12  4  0  0  0  0
 13 14  4  0  0  0  0
 14 15  4  0  0  0  0
 15 16  4  0  0  0  0
 17 18  1  0  0  0  0
 18 19  4  0  0  0  0
 18 23  4  0  0  0  0
 19 20  4  0  0  0  0
 20 21  4  0  0  0  0
 21 22  4  0  0  0  0
 22 23  4  0  0  0  0
M  END
>  <Name_Molregno>
264712

>  <5-HT2A>
6.14

$$$$
264763
  Marvin  02231216192D 0   1.00000     0.00000     0

 18 20  0  0  0  0  0  0  0  0999 V2000
    1.8112   -0.5279    0.0000 N   0  0  0  0  0  0  0  0  0
    1.0967   -0.1154    0.0000 C   0  0  0  0  0  0  0  0  0
    1.0967    0.7096    0.0000 C   0  0  0  0  0  0  0  0  0
    1.8112    1.1221    0.0000 C   0  0  0  0  0  0  0  0  0
    1.8112    1.9471    0.0000 C   0  0  0  0  0  0  0  0  0
    1.0967    2.3596    0.0000 C   0  0  0  0  0  0  0  0  0
    0.3822    1.9471    0.0000 C   0  0  0  0  0  0  0  0  0
    0.3822    1.1221    0.0000 C   0  0  0  0  0  0  0  0  0
   -0.3322    0.7096    0.0000 C   0  0  0  0  0  0  0  0  0
   -1.0467    1.1221    0.0000 C   0  0  0  0  0  0  0  0  0
   -1.0467    1.9471    0.0000 C   0  0  0  0  0  0  0  0  0
   -0.3322    2.3596    0.0000 C   0  0  0  0  0  0  0  0  0
    2.5256    2.3596    0.0000 C   0  0  0  0  0  0  0  0  0
    3.2401    1.9471    0.0000 C   0  0  0  0  0  0  0  0  0
    3.2401    1.1221    0.0000 C   0  0  0  0  0  0  0  0  0
    2.5256    0.7096    0.0000 C   0  0  0  0  0  0  0  0  0
    1.8112   -1.3529    0.0000 C   0  0  0  0  0  0  0  0  0
    2.5256   -0.1154    0.0000 C   0  0  0  0  0  0  0  0  0
  1  2  1  0  0  0  0
  1 17  1  0  0  0  0
  1 18  1  0  0  0  0
  2  3  1  0  0  0  0
  3  4  1  0  0  0  0
  3  8  1  0  0  0  0
  4  5  4  0  0  0  0
  4 16  4  0  0  0  0
  5  6  1  0  0  0  0
  5 13  4  0  0  0  0
  6  7  1  0  0  0  0
  7  8  4  0  0  0  0
  7 12  4  0  0  0  0
  8  9  4  0  0  0  0
  9 10  4  0  0  0  0
 10 11  4  0  0  0  0
 11 12  4  0  0  0  0
 13 14  4  0  0  0  0
 14 15  4  0  0  0  0
 15 16  4  0  0  0  0
M  END
>  <Name_Molregno>
264763

>  <5-HT2A>
6.27

>  <HISTAMINE H1>
7.6

$$$$
265452
  Marvin  02231216192D 0   1.00000     0.00000     0

 20 22  0  0  0  0  0  0  0  0999 V2000
   -0.5462   -1.7940    0.0000 N   0  0  0  0  0  0  0  0  0
    0.1683   -2.2065    0.0000 C   0  0  0  0  0  0  0  0  0
    0.8827   -1.7940    0.0000 C   0  0  0  0  0  0  0  0  0
    1.5972   -2.2065    0.0000 C   0  0  0  0  0  0  0  0  0
    2.3117   -1.7940    0.0000 C   0  0  0  0  0  0  0  0  0
    3.0261   -2.2065    0.0000 C   0  0  0  0  0  0  0  0  0
    3.7406   -1.7940    0.0000 C   0  0  0  0  0  0  0  0  0
    3.7406   -0.9690    0.0000 C   0  0  0  0  0  0  0  0  0
    3.0261   -0.5565    0.0000 C   0  0  0  0  0  0  0  0  0
    2.3117   -0.9690    0.0000 C   0  0  0  0  0  0  0  0  0
    1.5972   -0.5565    0.0000 C   0  0  0  0  0  0  0  0  0
    1.5972    0.2685    0.0000 C   0  0  0  0  0  0  0  0  0
    2.3117    0.6810    0.0000 C   0  0  0  0  0  0  0  0  0
    3.0261    0.2685    0.0000 C   0  0  0  0  0  0  0  0  0
    4.4551   -2.2065    0.0000 C   0  0  0  0  0  0  0  0  0
    4.4551   -3.0315    0.0000 C   0  0  0  0  0  0  0  0  0
    3.7406   -3.4440    0.0000 C   0  0  0  0  0  0  0  0  0
    3.0261   -3.0315    0.0000 C   0  0  0  0  0  0  0  0  0
   -1.2607   -2.2065    0.0000 C   0  0  0  0  0  0  0  0  0
   -0.5462   -0.9690    0.0000 C   0  0  0  0  0  0  0  0  0
  1  2  1  0  0  0  0
  1 19  1  0  0  0  0
  1 20  1  0  0  0  0
  2  3  1  0  0  0  0
  3  4  1  0  0  0  0
  4  5  1  0  0  0  0
  5  6  1  0  0  0  0
  5 10  1  0  0  0  0
  6  7  4  0  0  0  0
  6 18  4  0  0  0  0
  7  8  1  0  0  0  0
  7 15  4  0  0  0  0
  8  9  1  0  0  0  0
  9 10  4  0  0  0  0
  9 14  4  0  0  0  0
 10 11  4  0  0  0  0
 11 12  4  0  0  0  0
 12 13  4  0  0  0  0
 13 14  4  0  0  0  0
 15 16  4  0  0  0  0
 16 17  4  0  0  0  0
 17 18  4  0  0  0  0
M  END
>  <Name_Molregno>
265452

>  <5-HT2A>
7.66

>  <HISTAMINE H1>
9.3

$$$$
269278
  Marvin  02231216192D 0   1.00000     0.00000     0

 27 30  0  0  1  0  0  0  0  0999 V2000
    7.1731    4.7360    0.0000 F   0  0  0  0  0  0  0  0  0
    7.1731    3.9110    0.0000 C   0  0  0  0  0  0  0  0  0
    7.8876    3.4985    0.0000 C   0  0  0  0  0  0  0  0  0
    7.8876    2.6735    0.0000 C   0  0  0  0  0  0  0  0  0
    7.1731    2.2610    0.0000 C   0  0  0  0  0  0  0  0  0
    6.4587    2.6735    0.0000 C   0  0  0  0  0  0  0  0  0
    6.4587    3.4985    0.0000 C   0  0  0  0  0  0  0  0  0
    7.1731    1.4360    0.0000 C   0  0  0  0  0  0  0  0  0
    7.8876    1.0235    0.0000 O   0  0  0  0  0  0  0  0  0
    6.4587    1.0235    0.0000 C   0  0  0  0  0  0  0  0  0
    6.4587    0.1985    0.0000 C   0  0  0  0  0  0  0  0  0
    5.7442   -0.2140    0.0000 C   0  0  0  0  0  0  0  0  0
    5.0297    0.1985    0.0000 N   0  0  0  0  0  0  0  0  0
    5.0297    1.0235    0.0000 C   0  0  0  0  0  0  0  0  0
    5.7442    1.4360    0.0000 C   0  0  0  0  0  0  0  0  0
    4.3152   -0.2140    0.0000 C   0  0  0  0  0  0  0  0  0
    4.3152   -1.0390    0.0000 C   0  0  0  0  0  0  0  0  0
    3.6008   -1.4515    0.0000 C   0  0  0  0  0  0  0  0  0
    3.6008   -2.2765    0.0000 C   0  0  0  0  0  0  0  0  0
    2.8863   -2.6890    0.0000 C   0  0  0  0  0  0  0  0  0
    2.1718   -2.2765    0.0000 C   0  0  0  0  0  0  0  0  0
    1.3872   -2.5314    0.0000 O   0  0  0  0  0  0  0  0  0
    0.9023   -1.8640    0.0000 C   0  0  0  0  0  0  0  0  0
    1.3872   -1.1965    0.0000 C   0  0  0  0  0  0  0  0  0
    2.1718   -1.4515    0.0000 C   0  0  0  0  0  0  0  0  0
    2.8863   -1.0390    0.0000 C   0  0  0  0  0  0  0  0  0
    2.8863   -0.2140    0.0000 O   0  0  0  0  0  0  0  0  0
  1  2  1  0  0  0  0
  2  3  4  0  0  0  0
  2  7  4  0  0  0  0
  3  4  4  0  0  0  0
  4  5  4  0  0  0  0
  5  6  4  0  0  0  0
  5  8  1  0  0  0  0
  6  7  4  0  0  0  0
  8  9  2  0  0  0  0
  8 10  1  0  0  0  0
 10 11  1  0  0  0  0
 10 15  1  0  0  0  0
 11 12  1  0  0  0  0
 12 13  1  0  0  0  0
 13 14  1  0  0  0  0
 13 16  1  0  0  0  0
 14 15  1  0  0  0  0
 16 17  1  0  0  0  0
 17 18  1  0  0  0  0
 18 19  1  0  0  0  0
 18 26  1  0  0  0  0
 19 20  1  0  0  0  0
 20 21  1  0  0  0  0
 21 22  4  0  0  0  0
 21 25  4  0  0  0  0
 22 23  4  0  0  0  0
 23 24  4  0  0  0  0
 24 25  4  0  0  0  0
 25 26  1  0  0  0  0
 26 27  2  0  0  0  0
M  END
>  <Name_Molregno>
269278

>  <5-HT2A>
7.35

>  <5-HT2C>
6.47

>  <DOPAMINE D2>
6.14

$$$$
269654
  Marvin  02231216192D 0   1.00000     0.00000     0

 28 32  0  0  1  0  0  0  0  0999 V2000
    7.9525    4.2542    0.0000 F   0  0  0  0  0  0  0  0  0
    7.6975    3.4695    0.0000 C   0  0  0  0  0  0  0  0  0
    8.2496    2.8565    0.0000 C   0  0  0  0  0  0  0  0  0
    7.9946    2.0718    0.0000 C   0  0  0  0  0  0  0  0  0
    8.4071    1.3574    0.0000 O   0  0  0  0  0  0  0  0  0
    7.8551    0.7443    0.0000 N   0  0  0  0  0  0  0  0  0
    7.1014    1.0798    0.0000 C   0  0  0  0  0  0  0  0  0
    7.1877    1.9003    0.0000 C   0  0  0  0  0  0  0  0  0
    6.6356    2.5134    0.0000 C   0  0  0  0  0  0  0  0  0
    6.8906    3.2980    0.0000 C   0  0  0  0  0  0  0  0  0
    6.3869    0.6673    0.0000 C   0  0  0  0  0  0  0  0  0
    6.3869   -0.1577    0.0000 C   0  0  0  0  0  0  0  0  0
    5.6725   -0.5702    0.0000 C   0  0  0  0  0  0  0  0  0
    4.9580   -0.1577    0.0000 N   0  0  0  0  0  0  0  0  0
    4.9580    0.6673    0.0000 C   0  0  0  0  0  0  0  0  0
    5.6725    1.0798    0.0000 C   0  0  0  0  0  0  0  0  0
    4.2435   -0.5702    0.0000 C   0  0  0  0  0  0  0  0  0
    4.2435   -1.3952    0.0000 C   0  0  0  0  0  0  0  0  0
    3.5291   -1.8077    0.0000 C   0  0  0  0  0  0  0  0  0
    3.5291   -2.6327    0.0000 C   0  0  0  0  0  0  0  0  0
    2.8146   -3.0452    0.0000 C   0  0  0  0  0  0  0  0  0
    2.1001   -2.6327    0.0000 C   0  0  0  0  0  0  0  0  0
    1.3155   -2.8876    0.0000 O   0  0  0  0  0  0  0  0  0
    0.8306   -2.2202    0.0000 C   0  0  0  0  0  0  0  0  0
    1.3155   -1.5527    0.0000 C   0  0  0  0  0  0  0  0  0
    2.1001   -1.8077    0.0000 C   0  0  0  0  0  0  0  0  0
    2.8146   -1.3952    0.0000 C   0  0  0  0  0  0  0  0  0
    2.8146   -0.5702    0.0000 O   0  0  0  0  0  0  0  0  0
  1  2  1  0  0  0  0
  2  3  4  0  0  0  0
  2 10  4  0  0  0  0
  3  4  4  0  0  0  0
  4  5  4  0  0  0  0
  4  8  4  0  0  0  0
  5  6  4  0  0  0  0
  6  7  4  0  0  0  0
  7  8  4  0  0  0  0
  7 11  1  0  0  0  0
  8  9  4  0  0  0  0
  9 10  4  0  0  0  0
 11 12  1  0  0  0  0
 11 16  1  0  0  0  0
 12 13  1  0  0  0  0
 13 14  1  0  0  0  0
 14 15  1  0  0  0  0
 14 17  1  0  0  0  0
 15 16  1  0  0  0  0
 17 18  1  0  0  0  0
 18 19  1  0  0  0  0
 19 20  1  0  0  0  0
 19 27  1  0  0  0  0
 20 21  1  0  0  0  0
 21 22  1  0  0  0  0
 22 23  4  0  0  0  0
 22 26  4  0  0  0  0
 23 24  4  0  0  0  0
 24 25  4  0  0  0  0
 25 26  4  0  0  0  0
 26 27  1  0  0  0  0
 27 28  2  0  0  0  0
M  END
>  <Name_Molregno>
269654

>  <5-HT2A>
9.18

>  <5-HT2C>
7.46

>  <DOPAMINE D2>
7.34

$$$$
296630
  Marvin  02231216192D 0   1.00000     0.00000     0

 27 29  0  0  0  0  0  0  0  0999 V2000
    2.0635    2.2649    0.0000 S   0  0  0  0  0  0  0  0  0
    2.6955    1.7346    0.0000 O   0  0  0  0  0  0  0  0  0
    1.4315    2.7952    0.0000 O   0  0  0  0  0  0  0  0  0
    1.5332    1.6329    0.0000 C   0  0  0  0  0  0  0  0  0
    1.0029    2.2649    0.0000 F   0  0  0  0  0  0  0  0  0
    2.2477    1.2204    0.0000 C   0  0  0  0  0  0  0  0  0
    2.2477    0.3954    0.0000 C   0  0  0  0  0  0  0  0  0
    1.5332   -0.0171    0.0000 N   0  0  0  0  0  0  0  0  0
    0.8187    0.3954    0.0000 C   0  0  0  0  0  0  0  0  0
    0.8187    1.2204    0.0000 C   0  0  0  0  0  0  0  0  0
    1.5332   -0.8421    0.0000 C   0  0  0  0  0  0  0  0  0
    0.8187   -1.2546    0.0000 C   0  0  0  0  0  0  0  0  0
    0.8187   -2.0796    0.0000 C   0  0  0  0  0  0  0  0  0
    1.5332   -2.4921    0.0000 C   0  0  0  0  0  0  0  0  0
    1.5332   -3.3171    0.0000 C   0  0  0  0  0  0  0  0  0
    0.8187   -3.7296    0.0000 C   0  0  0  0  0  0  0  0  0
    0.8187   -4.5546    0.0000 F   0  0  0  0  0  0  0  0  0
    0.1042   -3.3171    0.0000 C   0  0  0  0  0  0  0  0  0
    0.1042   -2.4921    0.0000 C   0  0  0  0  0  0  0  0  0
   -0.6102   -2.0796    0.0000 F   0  0  0  0  0  0  0  0  0
    2.5938    2.8969    0.0000 C   0  0  0  0  0  0  0  0  0
    2.3116    3.6722    0.0000 C   0  0  0  0  0  0  0  0  0
    2.8419    4.3041    0.0000 C   0  0  0  0  0  0  0  0  0
    2.5597    5.0794    0.0000 F   0  0  0  0  0  0  0  0  0
    3.6544    4.1609    0.0000 C   0  0  0  0  0  0  0  0  0
    3.9365    3.3856    0.0000 C   0  0  0  0  0  0  0  0  0
    3.4062    2.7537    0.0000 C   0  0  0  0  0  0  0  0  0
  1  2  2  0  0  0  0
  1  3  2  0  0  0  0
  1  4  1  0  0  0  0
  1 21  1  0  0  0  0
  4  5  1  0  0  0  0
  4  6  1  0  0  0  0
  4 10  1  0  0  0  0
  6  7  1  0  0  0  0
  7  8  1  0  0  0  0
  8  9  1  0  0  0  0
  8 11  1  0  0  0  0
  9 10  1  0  0  0  0
 11 12  1  0  0  0  0
 12 13  1  0  0  0  0
 13 14  4  0  0  0  0
 13 19  4  0  0  0  0
 14 15  4  0  0  0  0
 15 16  4  0  0  0  0
 16 17  1  0  0  0  0
 16 18  4  0  0  0  0
 18 19  4  0  0  0  0
 19 20  1  0  0  0  0
 21 22  4  0  0  0  0
 21 27  4  0  0  0  0
 22 23  4  0  0  0  0
 23 24  1  0  0  0  0
 23 25  4  0  0  0  0
 25 26  4  0  0  0  0
 26 27  4  0  0  0  0
M  END
>  <Name_Molregno>
296630

>  <5-HT2A>
9.52

>  <5-HT2C>
7.31

>  <DOPAMINE D2>
5.82

$$$$
296631
  Marvin  02231216192D 0   1.00000     0.00000     0

 27 29  0  0  0  0  0  0  0  0999 V2000
   -0.4293   -1.8914    0.0000 S   0  0  0  0  0  0  0  0  0
    0.3957   -1.8914    0.0000 O   0  0  0  0  0  0  0  0  0
   -1.2543   -1.8914    0.0000 O   0  0  0  0  0  0  0  0  0
   -0.4293   -2.7164    0.0000 C   0  0  0  0  0  0  0  0  0
    0.2852   -3.1289    0.0000 C   0  0  0  0  0  0  0  0  0
    0.2852   -3.9539    0.0000 C   0  0  0  0  0  0  0  0  0
   -0.4293   -4.3664    0.0000 C   0  0  0  0  0  0  0  0  0
   -1.1437   -3.9539    0.0000 C   0  0  0  0  0  0  0  0  0
   -1.1437   -3.1289    0.0000 C   0  0  0  0  0  0  0  0  0
   -1.8582   -2.7164    0.0000 F   0  0  0  0  0  0  0  0  0
   -0.4293   -1.0664    0.0000 C   0  0  0  0  0  0  0  0  0
    0.3832   -1.2096    0.0000 F   0  0  0  0  0  0  0  0  0
   -1.2417   -1.2096    0.0000 C   0  0  0  0  0  0  0  0  0
   -1.7720   -0.5776    0.0000 C   0  0  0  0  0  0  0  0  0
   -1.4899    0.1976    0.0000 N   0  0  0  0  0  0  0  0  0
   -0.6774    0.3409    0.0000 C   0  0  0  0  0  0  0  0  0
   -0.1471   -0.2911    0.0000 C   0  0  0  0  0  0  0  0  0
   -2.0202    0.8296    0.0000 C   0  0  0  0  0  0  0  0  0
   -2.8326    0.6863    0.0000 C   0  0  0  0  0  0  0  0  0
   -3.3629    1.3183    0.0000 C   0  0  0  0  0  0  0  0  0
   -4.1754    1.1751    0.0000 C   0  0  0  0  0  0  0  0  0
   -4.7057    1.8070    0.0000 C   0  0  0  0  0  0  0  0  0
   -4.4235    2.5823    0.0000 C   0  0  0  0  0  0  0  0  0
   -4.9538    3.2143    0.0000 F   0  0  0  0  0  0  0  0  0
   -3.6111    2.7256    0.0000 C   0  0  0  0  0  0  0  0  0
   -3.0808    2.0936    0.0000 C   0  0  0  0  0  0  0  0  0
   -2.2683    2.2368    0.0000 F   0  0  0  0  0  0  0  0  0
  1  2  2  0  0  0  0
  1  3  2  0  0  0  0
  1  4  1  0  0  0  0
  1 11  1  0  0  0  0
  4  5  4  0  0  0  0
  4  9  4  0  0  0  0
  5  6  4  0  0  0  0
  6  7  4  0  0  0  0
  7  8  4  0  0  0  0
  8  9  4  0  0  0  0
  9 10  1  0  0  0  0
 11 12  1  0  0  0  0
 11 13  1  0  0  0  0
 11 17  1  0  0  0  0
 13 14  1  0  0  0  0
 14 15  1  0  0  0  0
 15 16  1  0  0  0  0
 15 18  1  0  0  0  0
 16 17  1  0  0  0  0
 18 19  1  0  0  0  0
 19 20  1  0  0  0  0
 20 21  4  0  0  0  0
 20 26  4  0  0  0  0
 21 22  4  0  0  0  0
 22 23  4  0  0  0  0
 23 24  1  0  0  0  0
 23 25  4  0  0  0  0
 25 26  4  0  0  0  0
 26 27  1  0  0  0  0
M  END
>  <Name_Molregno>
296631

>  <5-HT2A>
9.49

>  <5-HT2C>
7.85

>  <DOPAMINE D2>
6.58

$$$$
296660
  Marvin  02231216192D 0   1.00000     0.00000     0

 26 28  0  0  0  0  0  0  0  0999 V2000
   -1.6648    1.7168    0.0000 S   0  0  0  0  0  0  0  0  0
   -0.8398    1.7168    0.0000 O   0  0  0  0  0  0  0  0  0
   -2.4898    1.7168    0.0000 O   0  0  0  0  0  0  0  0  0
   -1.6648    0.8918    0.0000 C   0  0  0  0  0  0  0  0  0
   -0.9503    0.4793    0.0000 C   0  0  0  0  0  0  0  0  0
   -0.9503   -0.3457    0.0000 C   0  0  0  0  0  0  0  0  0
   -1.6648   -0.7582    0.0000 N   0  0  0  0  0  0  0  0  0
   -2.3792   -0.3457    0.0000 C   0  0  0  0  0  0  0  0  0
   -2.3792    0.4793    0.0000 C   0  0  0  0  0  0  0  0  0
   -1.6648   -1.5832    0.0000 C   0  0  0  0  0  0  0  0  0
   -2.3792   -1.9957    0.0000 C   0  0  0  0  0  0  0  0  0
   -3.0937   -1.5832    0.0000 O   0  0  0  0  0  0  0  0  0
   -2.3792   -2.8207    0.0000 C   0  0  0  0  0  0  0  0  0
   -1.6648   -3.2332    0.0000 C   0  0  0  0  0  0  0  0  0
   -1.6648   -4.0582    0.0000 C   0  0  0  0  0  0  0  0  0
   -2.3792   -4.4707    0.0000 C   0  0  0  0  0  0  0  0  0
   -2.3792   -5.2957    0.0000 F   0  0  0  0  0  0  0  0  0
   -3.0937   -4.0582    0.0000 C   0  0  0  0  0  0  0  0  0
   -3.0937   -3.2332    0.0000 C   0  0  0  0  0  0  0  0  0
   -3.8082   -2.8207    0.0000 F   0  0  0  0  0  0  0  0  0
   -1.6648    2.5418    0.0000 C   0  0  0  0  0  0  0  0  0
   -2.3792    2.9543    0.0000 C   0  0  0  0  0  0  0  0  0
   -2.3792    3.7793    0.0000 C   0  0  0  0  0  0  0  0  0
   -1.6648    4.1918    0.0000 C   0  0  0  0  0  0  0  0  0
   -0.9503    3.7793    0.0000 C   0  0  0  0  0  0  0  0  0
   -0.9503    2.9543    0.0000 C   0  0  0  0  0  0  0  0  0
  1  2  2  0  0  0  0
  1  3  2  0  0  0  0
  1  4  1  0  0  0  0
  1 21  1  0  0  0  0
  4  5  1  0  0  0  0
  4  9  1  0  0  0  0
  5  6  1  0  0  0  0
  6  7  1  0  0  0  0
  7  8  1  0  0  0  0
  7 10  1  0  0  0  0
  8  9  1  0  0  0  0
 10 11  1  0  0  0  0
 11 12  2  0  0  0  0
 11 13  1  0  0  0  0
 13 14  4  0  0  0  0
 13 19  4  0  0  0  0
 14 15  4  0  0  0  0
 15 16  4  0  0  0  0
 16 17  1  0  0  0  0
 16 18  4  0  0  0  0
 18 19  4  0  0  0  0
 19 20  1  0  0  0  0
 21 22  4  0  0  0  0
 21 26  4  0  0  0  0
 22 23  4  0  0  0  0
 23 24  4  0  0  0  0
 24 25  4  0  0  0  0
 25 26  4  0  0  0  0
M  END
>  <Name_Molregno>
296660

>  <5-HT2A>
8.62

>  <5-HT2C>
6.89

>  <DOPAMINE D2>
5.82

$$$$
296685
  Marvin  02231216192D 0   1.00000     0.00000     0

 30 33  0  0  0  0  0  0  0  0999 V2000
   -0.2918   -1.5147    0.0000 S   0  0  0  0  0  0  0  0  0
   -1.1168   -1.5147    0.0000 O   0  0  0  0  0  0  0  0  0
    0.5332   -1.5147    0.0000 O   0  0  0  0  0  0  0  0  0
   -0.2918   -0.6897    0.0000 C   0  0  0  0  0  0  0  0  0
    0.5206   -0.8329    0.0000 F   0  0  0  0  0  0  0  0  0
   -1.1043   -0.8329    0.0000 C   0  0  0  0  0  0  0  0  0
   -1.6346   -0.2009    0.0000 C   0  0  0  0  0  0  0  0  0
   -1.3524    0.5743    0.0000 N   0  0  0  0  0  0  0  0  0
   -0.5400    0.7176    0.0000 C   0  0  0  0  0  0  0  0  0
   -0.0097    0.0856    0.0000 C   0  0  0  0  0  0  0  0  0
   -1.8827    1.2063    0.0000 C   0  0  0  0  0  0  0  0  0
   -1.6006    1.9815    0.0000 C   0  0  0  0  0  0  0  0  0
   -2.1309    2.6135    0.0000 C   0  0  0  0  0  0  0  0  0
   -2.9433    2.4703    0.0000 C   0  0  0  0  0  0  0  0  0
   -3.4736    3.1023    0.0000 C   0  0  0  0  0  0  0  0  0
   -3.1915    3.8775    0.0000 C   0  0  0  0  0  0  0  0  0
   -3.7218    4.5095    0.0000 F   0  0  0  0  0  0  0  0  0
   -2.3790    4.0208    0.0000 C   0  0  0  0  0  0  0  0  0
   -1.8487    3.3888    0.0000 C   0  0  0  0  0  0  0  0  0
   -1.0362    3.5320    0.0000 F   0  0  0  0  0  0  0  0  0
   -0.2918   -2.3397    0.0000 C   0  0  0  0  0  0  0  0  0
    0.4226   -2.7522    0.0000 C   0  0  0  0  0  0  0  0  0
    0.4226   -3.5772    0.0000 C   0  0  0  0  0  0  0  0  0
   -0.2918   -3.9897    0.0000 C   0  0  0  0  0  0  0  0  0
   -0.2918   -4.8147    0.0000 N   0  0  0  0  0  0  0  0  0
    0.2915   -5.3980    0.0000 C   0  0  0  0  0  0  0  0  0
   -0.2918   -5.9814    0.0000 C   0  0  0  0  0  0  0  0  0
   -0.8752   -5.3980    0.0000 C   0  0  0  0  0  0  0  0  0
   -1.0063   -3.5772    0.0000 C   0  0  0  0  0  0  0  0  0
   -1.0063   -2.7522    0.0000 C   0  0  0  0  0  0  0  0  0
  1  2  2  0  0  0  0
  1  3  2  0  0  0  0
  1  4  1  0  0  0  0
  1 21  1  0  0  0  0
  4  5  1  0  0  0  0
  4  6  1  0  0  0  0
  4 10  1  0  0  0  0
  6  7  1  0  0  0  0
  7  8  1  0  0  0  0
  8  9  1  0  0  0  0
  8 11  1  0  0  0  0
  9 10  1  0  0  0  0
 11 12  1  0  0  0  0
 12 13  1  0  0  0  0
 13 14  4  0  0  0  0
 13 19  4  0  0  0  0
 14 15  4  0  0  0  0
 15 16  4  0  0  0  0
 16 17  1  0  0  0  0
 16 18  4  0  0  0  0
 18 19  4  0  0  0  0
 19 20  1  0  0  0  0
 21 22  4  0  0  0  0
 21 30  4  0  0  0  0
 22 23  4  0  0  0  0
 23 24  4  0  0  0  0
 24 25  1  0  0  0  0
 24 29  4  0  0  0  0
 25 26  1  0  0  0  0
 25 28  1  0  0  0  0
 26 27  1  0  0  0  0
 27 28  1  0  0  0  0
 29 30  4  0  0  0  0
M  END
>  <Name_Molregno>
296685

>  <5-HT2A>
9

>  <5-HT2C>
6.07

>  <DOPAMINE D2>
5.7

$$$$
296708
  Marvin  02231216192D 0   1.00000     0.00000     0

 26 28  0  0  0  0  0  0  0  0999 V2000
   -1.4047    1.3272    0.0000 S   0  0  0  0  0  0  0  0  0
   -0.7727    0.7969    0.0000 O   0  0  0  0  0  0  0  0  0
   -2.0367    1.8575    0.0000 O   0  0  0  0  0  0  0  0  0
   -1.9350    0.6952    0.0000 C   0  0  0  0  0  0  0  0  0
   -2.4653    1.3272    0.0000 F   0  0  0  0  0  0  0  0  0
   -1.2205    0.2827    0.0000 C   0  0  0  0  0  0  0  0  0
   -1.2205   -0.5423    0.0000 C   0  0  0  0  0  0  0  0  0
   -1.9350   -0.9548    0.0000 N   0  0  0  0  0  0  0  0  0
   -2.6494   -0.5423    0.0000 C   0  0  0  0  0  0  0  0  0
   -2.6494    0.2827    0.0000 C   0  0  0  0  0  0  0  0  0
   -1.9350   -1.7798    0.0000 C   0  0  0  0  0  0  0  0  0
   -2.6494   -2.1923    0.0000 C   0  0  0  0  0  0  0  0  0
   -2.6494   -3.0173    0.0000 C   0  0  0  0  0  0  0  0  0
   -1.9350   -3.4298    0.0000 C   0  0  0  0  0  0  0  0  0
   -1.9350   -4.2548    0.0000 C   0  0  0  0  0  0  0  0  0
   -2.6494   -4.6673    0.0000 C   0  0  0  0  0  0  0  0  0
   -2.6494   -5.4923    0.0000 F   0  0  0  0  0  0  0  0  0
   -3.3639   -4.2548    0.0000 C   0  0  0  0  0  0  0  0  0
   -3.3639   -3.4298    0.0000 C   0  0  0  0  0  0  0  0  0
   -4.0784   -3.0173    0.0000 F   0  0  0  0  0  0  0  0  0
   -0.8744    1.9592    0.0000 C   0  0  0  0  0  0  0  0  0
   -1.1565    2.7344    0.0000 C   0  0  0  0  0  0  0  0  0
   -0.6262    3.3664    0.0000 C   0  0  0  0  0  0  0  0  0
    0.1862    3.2231    0.0000 C   0  0  0  0  0  0  0  0  0
    0.4684    2.4479    0.0000 C   0  0  0  0  0  0  0  0  0
   -0.0619    1.8159    0.0000 C   0  0  0  0  0  0  0  0  0
  1  2  2  0  0  0  0
  1  3  2  0  0  0  0
  1  4  1  0  0  0  0
  1 21  1  0  0  0  0
  4  5  1  0  0  0  0
  4  6  1  0  0  0  0
  4 10  1  0  0  0  0
  6  7  1  0  0  0  0
  7  8  1  0  0  0  0
  8  9  1  0  0  0  0
  8 11  1  0  0  0  0
  9 10  1  0  0  0  0
 11 12  1  0  0  0  0
 12 13  1  0  0  0  0
 13 14  4  0  0  0  0
 13 19  4  0  0  0  0
 14 15  4  0  0  0  0
 15 16  4  0  0  0  0
 16 17  1  0  0  0  0
 16 18  4  0  0  0  0
 18 19  4  0  0  0  0
 19 20  1  0  0  0  0
 21 22  4  0  0  0  0
 21 26  4  0  0  0  0
 22 23  4  0  0  0  0
 23 24  4  0  0  0  0
 24 25  4  0  0  0  0
 25 26  4  0  0  0  0
M  END
>  <Name_Molregno>
296708

>  <5-HT2A>
9.17

>  <5-HT2C>
7.31

>  <DOPAMINE D2>
6

$$$$
296747
  Marvin  02231216192D 0   1.00000     0.00000     0

 36 40  0  0  1  0  0  0  0  0999 V2000
    2.0923    2.6223    0.0000 O   0  0  0  0  0  0  0  0  0
    1.3285    2.9341    0.0000 N   0  0  0  0  0  0  0  0  0
    0.7959    2.3041    0.0000 C   0  0  0  0  0  0  0  0  0
    1.2305    1.6028    0.0000 C   0  0  0  0  0  0  0  0  0
    0.8405    0.8758    0.0000 C   0  0  0  0  0  0  0  0  0
    0.0159    0.8501    0.0000 O   0  0  0  0  0  0  0  0  0
   -0.4187    1.5513    0.0000 C   0  0  0  0  0  0  0  0  0
   -1.2433    1.5255    0.0000 C   0  0  0  0  0  0  0  0  0
   -1.6779    2.2268    0.0000 C   0  0  0  0  0  0  0  0  0
   -2.5025    2.2010    0.0000 O   0  0  0  0  0  0  0  0  0
   -2.9371    2.9023    0.0000 C   0  0  0  0  0  0  0  0  0
   -1.2879    2.9538    0.0000 C   0  0  0  0  0  0  0  0  0
   -1.7225    3.6550    0.0000 O   0  0  0  0  0  0  0  0  0
   -1.3326    4.3820    0.0000 C   0  0  0  0  0  0  0  0  0
   -0.4633    2.9796    0.0000 C   0  0  0  0  0  0  0  0  0
   -0.0287    2.2783    0.0000 C   0  0  0  0  0  0  0  0  0
    2.0317    1.7995    0.0000 C   0  0  0  0  0  0  0  0  0
    2.6617    1.2669    0.0000 C   0  0  0  0  0  0  0  0  0
    2.5155    0.4549    0.0000 N   0  0  0  0  0  0  0  0  0
    3.1455   -0.0777    0.0000 C   0  0  0  0  0  0  0  0  0
    2.9993   -0.8896    0.0000 C   0  0  0  0  0  0  0  0  0
    2.2230   -1.1689    0.0000 N   0  0  0  0  0  0  0  0  0
    1.5930   -0.6363    0.0000 C   0  0  0  0  0  0  0  0  0
    1.7392    0.1756    0.0000 C   0  0  0  0  0  0  0  0  0
    2.0768   -1.9809    0.0000 C   0  0  0  0  0  0  0  0  0
    2.7068   -2.5135    0.0000 C   0  0  0  0  0  0  0  0  0
    2.5606   -3.3254    0.0000 C   0  0  0  0  0  0  0  0  0
    3.1906   -3.8580    0.0000 C   0  0  0  0  0  0  0  0  0
    3.0443   -4.6700    0.0000 C   0  0  0  0  0  0  0  0  0
    2.2681   -4.9493    0.0000 C   0  0  0  0  0  0  0  0  0
    3.6744   -5.2026    0.0000 C   0  0  0  0  0  0  0  0  0
    4.4507   -4.9233    0.0000 C   0  0  0  0  0  0  0  0  0
    5.0807   -5.4559    0.0000 C   0  0  0  0  0  0  0  0  0
    4.9344   -6.2678    0.0000 C   0  0  0  0  0  0  0  0  0
    4.1582   -6.5472    0.0000 C   0  0  0  0  0  0  0  0  0
    3.5281   -6.0145    0.0000 C   0  0  0  0  0  0  0  0  0
  1  2  1  0  0  0  0
  1 17  1  0  0  0  0
  2  3  2  0  0  0  0
  3  4  1  0  0  0  0
  3 16  1  0  0  0  0
  4  5  1  0  0  0  0
  4 17  1  0  0  0  0
  5  6  1  0  0  0  0
  6  7  1  0  0  0  0
  7  8  4  0  0  0  0
  7 16  4  0  0  0  0
  8  9  4  0  0  0  0
  9 10  1  0  0  0  0
  9 12  4  0  0  0  0
 10 11  1  0  0  0  0
 12 13  1  0  0  0  0
 12 15  4  0  0  0  0
 13 14  1  0  0  0  0
 15 16  4  0  0  0  0
 17 18  1  0  0  0  0
 18 19  1  0  0  0  0
 19 20  1  0  0  0  0
 19 24  1  0  0  0  0
 20 21  1  0  0  0  0
 21 22  1  0  0  0  0
 22 23  1  0  0  0  0
 22 25  1  0  0  0  0
 23 24  1  0  0  0  0
 25 26  1  0  0  0  0
 26 27  1  0  0  0  0
 27 28  1  0  0  0  0
 28 29  2  0  0  0  0
 29 30  1  0  0  0  0
 29 31  1  0  0  0  0
 31 32  4  0  0  0  0
 31 36  4  0  0  0  0
 32 33  4  0  0  0  0
 33 34  4  0  0  0  0
 34 35  4  0  0  0  0
 35 36  4  0  0  0  0
M  END
>  <Name_Molregno>
296747

>  <5-HT1A>
6

>  <5-HT2A>
6

>  <5-HT2C>
6

>  <5-HT7>
6

>  <Alpha-2A>
9.19

>  <Alpha-2B>
7.85

>  <Alpha-2C>
9.46

>  <DOPAMINE D3>
6.21

>  <DOPAMINE D4>
6

>  <HISTAMINE H1>
6

>  <Serotonin transporter>
8.18

$$$$
296798
  Marvin  02231216192D 0   1.00000     0.00000     0

 27 29  0  0  0  0  0  0  0  0999 V2000
   -1.3133    1.1868    0.0000 S   0  0  0  0  0  0  0  0  0
   -0.6813    0.6565    0.0000 O   0  0  0  0  0  0  0  0  0
   -1.9453    1.7171    0.0000 O   0  0  0  0  0  0  0  0  0
   -1.8436    0.5548    0.0000 C   0  0  0  0  0  0  0  0  0
   -2.3739    1.1868    0.0000 F   0  0  0  0  0  0  0  0  0
   -1.1291    0.1423    0.0000 C   0  0  0  0  0  0  0  0  0
   -1.1291   -0.6827    0.0000 C   0  0  0  0  0  0  0  0  0
   -1.8436   -1.0952    0.0000 N   0  0  0  0  0  0  0  0  0
   -2.5580   -0.6827    0.0000 C   0  0  0  0  0  0  0  0  0
   -2.5580    0.1423    0.0000 C   0  0  0  0  0  0  0  0  0
   -1.8436   -1.9202    0.0000 C   0  0  0  0  0  0  0  0  0
   -2.5580   -2.3327    0.0000 C   0  0  0  0  0  0  0  0  0
   -2.5580   -3.1577    0.0000 C   0  0  0  0  0  0  0  0  0
   -1.8436   -3.5702    0.0000 C   0  0  0  0  0  0  0  0  0
   -1.8436   -4.3952    0.0000 C   0  0  0  0  0  0  0  0  0
   -2.5580   -4.8077    0.0000 C   0  0  0  0  0  0  0  0  0
   -2.5580   -5.6327    0.0000 F   0  0  0  0  0  0  0  0  0
   -3.2725   -4.3952    0.0000 C   0  0  0  0  0  0  0  0  0
   -3.2725   -3.5702    0.0000 C   0  0  0  0  0  0  0  0  0
   -3.9870   -3.1577    0.0000 F   0  0  0  0  0  0  0  0  0
   -0.7830    1.8188    0.0000 C   0  0  0  0  0  0  0  0  0
   -1.0651    2.5940    0.0000 C   0  0  0  0  0  0  0  0  0
   -0.5348    3.2260    0.0000 C   0  0  0  0  0  0  0  0  0
    0.2776    3.0828    0.0000 C   0  0  0  0  0  0  0  0  0
    0.8079    3.7148    0.0000 F   0  0  0  0  0  0  0  0  0
    0.5598    2.3075    0.0000 C   0  0  0  0  0  0  0  0  0
    0.0295    1.6755    0.0000 C   0  0  0  0  0  0  0  0  0
  1  2  2  0  0  0  0
  1  3  2  0  0  0  0
  1  4  1  0  0  0  0
  1 21  1  0  0  0  0
  4  5  1  0  0  0  0
  4  6  1  0  0  0  0
  4 10  1  0  0  0  0
  6  7  1  0  0  0  0
  7  8  1  0  0  0  0
  8  9  1  0  0  0  0
  8 11  1  0  0  0  0
  9 10  1  0  0  0  0
 11 12  1  0  0  0  0
 12 13  1  0  0  0  0
 13 14  4  0  0  0  0
 13 19  4  0  0  0  0
 14 15  4  0  0  0  0
 15 16  4  0  0  0  0
 16 17  1  0  0  0  0
 16 18  4  0  0  0  0
 18 19  4  0  0  0  0
 19 20  1  0  0  0  0
 21 22  4  0  0  0  0
 21 27  4  0  0  0  0
 22 23  4  0  0  0  0
 23 24  4  0  0  0  0
 24 25  1  0  0  0  0
 24 26  4  0  0  0  0
 26 27  4  0  0  0  0
M  END
>  <Name_Molregno>
296798

>  <5-HT2A>
9.41

>  <5-HT2C>
6.88

>  <DOPAMINE D2>
6.51

$$$$
296817
  Marvin  02231216192D 0   1.00000     0.00000     0

 31 34  0  0  0  0  0  0  0  0999 V2000
   -0.1372   -1.3302    0.0000 S   0  0  0  0  0  0  0  0  0
   -0.9622   -1.3302    0.0000 O   0  0  0  0  0  0  0  0  0
    0.6878   -1.3302    0.0000 O   0  0  0  0  0  0  0  0  0
   -0.1372   -0.5052    0.0000 C   0  0  0  0  0  0  0  0  0
    0.6752   -0.6485    0.0000 F   0  0  0  0  0  0  0  0  0
   -0.9497   -0.6485    0.0000 C   0  0  0  0  0  0  0  0  0
   -1.4800   -0.0165    0.0000 C   0  0  0  0  0  0  0  0  0
   -1.1978    0.7587    0.0000 N   0  0  0  0  0  0  0  0  0
   -0.3854    0.9020    0.0000 C   0  0  0  0  0  0  0  0  0
    0.1449    0.2700    0.0000 C   0  0  0  0  0  0  0  0  0
   -1.7281    1.3907    0.0000 C   0  0  0  0  0  0  0  0  0
   -1.4460    2.1660    0.0000 C   0  0  0  0  0  0  0  0  0
   -1.9763    2.7980    0.0000 C   0  0  0  0  0  0  0  0  0
   -2.7887    2.6547    0.0000 C   0  0  0  0  0  0  0  0  0
   -3.3190    3.2867    0.0000 C   0  0  0  0  0  0  0  0  0
   -3.0369    4.0619    0.0000 C   0  0  0  0  0  0  0  0  0
   -3.5672    4.6939    0.0000 F   0  0  0  0  0  0  0  0  0
   -2.2244    4.2052    0.0000 C   0  0  0  0  0  0  0  0  0
   -1.6941    3.5732    0.0000 C   0  0  0  0  0  0  0  0  0
   -0.8816    3.7165    0.0000 F   0  0  0  0  0  0  0  0  0
   -0.1372   -2.1552    0.0000 C   0  0  0  0  0  0  0  0  0
    0.5772   -2.5677    0.0000 C   0  0  0  0  0  0  0  0  0
    0.5772   -3.3927    0.0000 C   0  0  0  0  0  0  0  0  0
   -0.1372   -3.8052    0.0000 C   0  0  0  0  0  0  0  0  0
   -0.1372   -4.6302    0.0000 N   0  0  0  0  0  0  0  0  0
    0.5302   -5.1151    0.0000 N   0  0  0  0  0  0  0  0  0
    0.2753   -5.8998    0.0000 C   0  0  0  0  0  0  0  0  0
   -0.5497   -5.8998    0.0000 C   0  0  0  0  0  0  0  0  0
   -0.8047   -5.1151    0.0000 C   0  0  0  0  0  0  0  0  0
   -0.8517   -3.3927    0.0000 C   0  0  0  0  0  0  0  0  0
   -0.8517   -2.5677    0.0000 C   0  0  0  0  0  0  0  0  0
  1  2  2  0  0  0  0
  1  3  2  0  0  0  0
  1  4  1  0  0  0  0
  1 21  1  0  0  0  0
  4  5  1  0  0  0  0
  4  6  1  0  0  0  0
  4 10  1  0  0  0  0
  6  7  1  0  0  0  0
  7  8  1  0  0  0  0
  8  9  1  0  0  0  0
  8 11  1  0  0  0  0
  9 10  1  0  0  0  0
 11 12  1  0  0  0  0
 12 13  1  0  0  0  0
 13 14  4  0  0  0  0
 13 19  4  0  0  0  0
 14 15  4  0  0  0  0
 15 16  4  0  0  0  0
 16 17  1  0  0  0  0
 16 18  4  0  0  0  0
 18 19  4  0  0  0  0
 19 20  1  0  0  0  0
 21 22  4  0  0  0  0
 21 31  4  0  0  0  0
 22 23  4  0  0  0  0
 23 24  4  0  0  0  0
 24 25  1  0  0  0  0
 24 30  4  0  0  0  0
 25 26  4  0  0  0  0
 25 29  4  0  0  0  0
 26 27  4  0  0  0  0
 27 28  4  0  0  0  0
 28 29  4  0  0  0  0
 30 31  4  0  0  0  0
M  END
>  <Name_Molregno>
296817

>  <5-HT2A>
8.7

>  <5-HT2C>
5.4

>  <DOPAMINE D2>
5.7

$$$$
296837
  Marvin  02231216192D 0   1.00000     0.00000     0

 31 34  0  0  0  0  0  0  0  0999 V2000
   -0.1372   -1.3302    0.0000 S   0  0  0  0  0  0  0  0  0
   -0.9622   -1.3302    0.0000 O   0  0  0  0  0  0  0  0  0
    0.6878   -1.3302    0.0000 O   0  0  0  0  0  0  0  0  0
   -0.1372   -0.5052    0.0000 C   0  0  0  0  0  0  0  0  0
    0.6752   -0.6485    0.0000 F   0  0  0  0  0  0  0  0  0
   -0.9497   -0.6485    0.0000 C   0  0  0  0  0  0  0  0  0
   -1.4800   -0.0165    0.0000 C   0  0  0  0  0  0  0  0  0
   -1.1978    0.7587    0.0000 N   0  0  0  0  0  0  0  0  0
   -0.3854    0.9020    0.0000 C   0  0  0  0  0  0  0  0  0
    0.1449    0.2700    0.0000 C   0  0  0  0  0  0  0  0  0
   -1.7281    1.3907    0.0000 C   0  0  0  0  0  0  0  0  0
   -1.4460    2.1660    0.0000 C   0  0  0  0  0  0  0  0  0
   -1.9763    2.7980    0.0000 C   0  0  0  0  0  0  0  0  0
   -2.7887    2.6547    0.0000 C   0  0  0  0  0  0  0  0  0
   -3.3190    3.2867    0.0000 C   0  0  0  0  0  0  0  0  0
   -3.0369    4.0619    0.0000 C   0  0  0  0  0  0  0  0  0
   -3.5672    4.6939    0.0000 F   0  0  0  0  0  0  0  0  0
   -2.2244    4.2052    0.0000 C   0  0  0  0  0  0  0  0  0
   -1.6941    3.5732    0.0000 C   0  0  0  0  0  0  0  0  0
   -0.8816    3.7165    0.0000 F   0  0  0  0  0  0  0  0  0
   -0.1372   -2.1552    0.0000 C   0  0  0  0  0  0  0  0  0
    0.5772   -2.5677    0.0000 C   0  0  0  0  0  0  0  0  0
    0.5772   -3.3927    0.0000 C   0  0  0  0  0  0  0  0  0
   -0.1372   -3.8052    0.0000 C   0  0  0  0  0  0  0  0  0
   -0.1372   -4.6302    0.0000 N   0  0  0  0  0  0  0  0  0
    0.5302   -5.1151    0.0000 N   0  0  0  0  0  0  0  0  0
    0.2753   -5.8998    0.0000 N   0  0  0  0  0  0  0  0  0
   -0.5497   -5.8998    0.0000 C   0  0  0  0  0  0  0  0  0
   -0.8047   -5.1151    0.0000 C   0  0  0  0  0  0  0  0  0
   -0.8517   -3.3927    0.0000 C   0  0  0  0  0  0  0  0  0
   -0.8517   -2.5677    0.0000 C   0  0  0  0  0  0  0  0  0
  1  2  2  0  0  0  0
  1  3  2  0  0  0  0
  1  4  1  0  0  0  0
  1 21  1  0  0  0  0
  4  5  1  0  0  0  0
  4  6  1  0  0  0  0
  4 10  1  0  0  0  0
  6  7  1  0  0  0  0
  7  8  1  0  0  0  0
  8  9  1  0  0  0  0
  8 11  1  0  0  0  0
  9 10  1  0  0  0  0
 11 12  1  0  0  0  0
 12 13  1  0  0  0  0
 13 14  4  0  0  0  0
 13 19  4  0  0  0  0
 14 15  4  0  0  0  0
 15 16  4  0  0  0  0
 16 17  1  0  0  0  0
 16 18  4  0  0  0  0
 18 19  4  0  0  0  0
 19 20  1  0  0  0  0
 21 22  4  0  0  0  0
 21 31  4  0  0  0  0
 22 23  4  0  0  0  0
 23 24  4  0  0  0  0
 24 25  1  0  0  0  0
 24 30  4  0  0  0  0
 25 26  4  0  0  0  0
 25 29  4  0  0  0  0
 26 27  4  0  0  0  0
 27 28  4  0  0  0  0
 28 29  4  0  0  0  0
 30 31  4  0  0  0  0
M  END
>  <Name_Molregno>
296837

>  <5-HT2A>
9.18

>  <5-HT2C>
5.4

>  <DOPAMINE D2>
5.7

$$$$
296856
  Marvin  02231216192D 0   1.00000     0.00000     0

 27 29  0  0  0  0  0  0  0  0999 V2000
    3.6167    5.0943    0.0000 Cl  0  0  0  0  0  0  0  0  0
    3.6167    4.2693    0.0000 C   0  0  0  0  0  0  0  0  0
    4.3312    3.8568    0.0000 C   0  0  0  0  0  0  0  0  0
    4.3312    3.0318    0.0000 C   0  0  0  0  0  0  0  0  0
    3.6167    2.6193    0.0000 C   0  0  0  0  0  0  0  0  0
    3.6167    1.7943    0.0000 S   0  0  0  0  0  0  0  0  0
    2.7917    1.7943    0.0000 O   0  0  0  0  0  0  0  0  0
    4.4417    1.7943    0.0000 O   0  0  0  0  0  0  0  0  0
    3.6167    0.9693    0.0000 C   0  0  0  0  0  0  0  0  0
    2.8043    1.1126    0.0000 F   0  0  0  0  0  0  0  0  0
    4.4292    1.1126    0.0000 C   0  0  0  0  0  0  0  0  0
    4.9595    0.4806    0.0000 C   0  0  0  0  0  0  0  0  0
    4.6773   -0.2947    0.0000 N   0  0  0  0  0  0  0  0  0
    3.8649   -0.4379    0.0000 C   0  0  0  0  0  0  0  0  0
    3.3346    0.1941    0.0000 C   0  0  0  0  0  0  0  0  0
    5.2076   -0.9267    0.0000 C   0  0  0  0  0  0  0  0  0
    6.0201   -0.7834    0.0000 C   0  0  0  0  0  0  0  0  0
    6.5504   -1.4154    0.0000 C   0  0  0  0  0  0  0  0  0
    7.3629   -1.2721    0.0000 C   0  0  0  0  0  0  0  0  0
    7.8932   -1.9041    0.0000 C   0  0  0  0  0  0  0  0  0
    7.6110   -2.6794    0.0000 C   0  0  0  0  0  0  0  0  0
    8.1413   -3.3113    0.0000 F   0  0  0  0  0  0  0  0  0
    6.7985   -2.8226    0.0000 C   0  0  0  0  0  0  0  0  0
    6.2682   -2.1906    0.0000 C   0  0  0  0  0  0  0  0  0
    5.4558   -2.3339    0.0000 F   0  0  0  0  0  0  0  0  0
    2.9023    3.0318    0.0000 C   0  0  0  0  0  0  0  0  0
    2.9023    3.8568    0.0000 C   0  0  0  0  0  0  0  0  0
  1  2  1  0  0  0  0
  2  3  4  0  0  0  0
  2 27  4  0  0  0  0
  3  4  4  0  0  0  0
  4  5  4  0  0  0  0
  5  6  1  0  0  0  0
  5 26  4  0  0  0  0
  6  7  2  0  0  0  0
  6  8  2  0  0  0  0
  6  9  1  0  0  0  0
  9 10  1  0  0  0  0
  9 11  1  0  0  0  0
  9 15  1  0  0  0  0
 11 12  1  0  0  0  0
 12 13  1  0  0  0  0
 13 14  1  0  0  0  0
 13 16  1  0  0  0  0
 14 15  1  0  0  0  0
 16 17  1  0  0  0  0
 17 18  1  0  0  0  0
 18 19  4  0  0  0  0
 18 24  4  0  0  0  0
 19 20  4  0  0  0  0
 20 21  4  0  0  0  0
 21 22  1  0  0  0  0
 21 23  4  0  0  0  0
 23 24  4  0  0  0  0
 24 25  1  0  0  0  0
 26 27  4  0  0  0  0
M  END
>  <Name_Molregno>
296856

>  <5-HT2A>
9.19

>  <5-HT2C>
6.4

>  <DOPAMINE D2>
6

$$$$
296864
  Marvin  02231216192D 0   1.00000     0.00000     0

 28 30  0  0  0  0  0  0  0  0999 V2000
    1.6557    2.1570    0.0000 S   0  0  0  0  0  0  0  0  0
    2.2877    1.6267    0.0000 O   0  0  0  0  0  0  0  0  0
    1.0237    2.6873    0.0000 O   0  0  0  0  0  0  0  0  0
    1.1254    1.5251    0.0000 C   0  0  0  0  0  0  0  0  0
    0.5951    2.1570    0.0000 F   0  0  0  0  0  0  0  0  0
    1.8398    1.1126    0.0000 C   0  0  0  0  0  0  0  0  0
    1.8398    0.2876    0.0000 C   0  0  0  0  0  0  0  0  0
    1.1254   -0.1249    0.0000 N   0  0  0  0  0  0  0  0  0
    0.4109    0.2876    0.0000 C   0  0  0  0  0  0  0  0  0
    0.4109    1.1126    0.0000 C   0  0  0  0  0  0  0  0  0
    1.1254   -0.9499    0.0000 C   0  0  0  0  0  0  0  0  0
    0.4109   -1.3624    0.0000 C   0  0  0  0  0  0  0  0  0
    0.4109   -2.1874    0.0000 C   0  0  0  0  0  0  0  0  0
    1.1254   -2.5999    0.0000 C   0  0  0  0  0  0  0  0  0
    1.1254   -3.4249    0.0000 C   0  0  0  0  0  0  0  0  0
    0.4109   -3.8374    0.0000 C   0  0  0  0  0  0  0  0  0
    0.4109   -4.6624    0.0000 F   0  0  0  0  0  0  0  0  0
   -0.3036   -3.4249    0.0000 C   0  0  0  0  0  0  0  0  0
   -0.3036   -2.5999    0.0000 C   0  0  0  0  0  0  0  0  0
   -1.0180   -2.1874    0.0000 F   0  0  0  0  0  0  0  0  0
    2.1860    2.7890    0.0000 C   0  0  0  0  0  0  0  0  0
    1.9038    3.5643    0.0000 C   0  0  0  0  0  0  0  0  0
    2.4341    4.1963    0.0000 C   0  0  0  0  0  0  0  0  0
    3.2466    4.0530    0.0000 C   0  0  0  0  0  0  0  0  0
    3.5287    3.2778    0.0000 C   0  0  0  0  0  0  0  0  0
    2.9984    2.6458    0.0000 C   0  0  0  0  0  0  0  0  0
    3.7769    4.6850    0.0000 C   0  0  0  0  0  0  0  0  0
    4.3072    5.3170    0.0000 N   0  0  0  0  0  0  0  0  0
  1  2  2  0  0  0  0
  1  3  2  0  0  0  0
  1  4  1  0  0  0  0
  1 21  1  0  0  0  0
  4  5  1  0  0  0  0
  4  6  1  0  0  0  0
  4 10  1  0  0  0  0
  6  7  1  0  0  0  0
  7  8  1  0  0  0  0
  8  9  1  0  0  0  0
  8 11  1  0  0  0  0
  9 10  1  0  0  0  0
 11 12  1  0  0  0  0
 12 13  1  0  0  0  0
 13 14  4  0  0  0  0
 13 19  4  0  0  0  0
 14 15  4  0  0  0  0
 15 16  4  0  0  0  0
 16 17  1  0  0  0  0
 16 18  4  0  0  0  0
 18 19  4  0  0  0  0
 19 20  1  0  0  0  0
 21 22  4  0  0  0  0
 21 26  4  0  0  0  0
 22 23  4  0  0  0  0
 23 24  4  0  0  0  0
 24 25  4  0  0  0  0
 24 27  1  0  0  0  0
 25 26  4  0  0  0  0
 27 28  3  0  0  0  0
M  END
>  <Name_Molregno>
296864

>  <5-HT2A>
8.57

>  <5-HT2C>
5.83

>  <DOPAMINE D2>
6.06

$$$$
296899
  Marvin  02231216192D 0   1.00000     0.00000     0

 35 39  0  0  1  0  0  0  0  0999 V2000
    2.1989    2.1726    0.0000 O   0  0  0  0  0  0  0  0  0
    1.4352    2.4844    0.0000 N   0  0  0  0  0  0  0  0  0
    0.9025    1.8544    0.0000 C   0  0  0  0  0  0  0  0  0
    1.3371    1.1531    0.0000 C   0  0  0  0  0  0  0  0  0
    0.9472    0.4261    0.0000 C   0  0  0  0  0  0  0  0  0
    0.1226    0.4004    0.0000 O   0  0  0  0  0  0  0  0  0
   -0.3120    1.1016    0.0000 C   0  0  0  0  0  0  0  0  0
   -1.1366    1.0759    0.0000 C   0  0  0  0  0  0  0  0  0
   -1.5713    1.7771    0.0000 C   0  0  0  0  0  0  0  0  0
   -2.3959    1.7513    0.0000 O   0  0  0  0  0  0  0  0  0
   -2.8305    2.4526    0.0000 C   0  0  0  0  0  0  0  0  0
   -1.1813    2.5041    0.0000 C   0  0  0  0  0  0  0  0  0
   -1.6159    3.2053    0.0000 O   0  0  0  0  0  0  0  0  0
   -1.2259    3.9323    0.0000 C   0  0  0  0  0  0  0  0  0
   -0.3567    2.5299    0.0000 C   0  0  0  0  0  0  0  0  0
    0.0779    1.8286    0.0000 C   0  0  0  0  0  0  0  0  0
    2.1384    1.3498    0.0000 C   0  0  0  0  0  0  0  0  0
    2.7684    0.8172    0.0000 C   0  0  0  0  0  0  0  0  0
    2.6222    0.0052    0.0000 N   0  0  0  0  0  0  0  0  0
    3.2522   -0.5274    0.0000 C   0  0  0  0  0  0  0  0  0
    3.1059   -1.3393    0.0000 C   0  0  0  0  0  0  0  0  0
    2.3297   -1.6186    0.0000 N   0  0  0  0  0  0  0  0  0
    1.6996   -1.0860    0.0000 C   0  0  0  0  0  0  0  0  0
    1.8459   -0.2741    0.0000 C   0  0  0  0  0  0  0  0  0
    2.1834   -2.4306    0.0000 C   0  0  0  0  0  0  0  0  0
    1.4071   -2.7099    0.0000 C   0  0  0  0  0  0  0  0  0
    1.2609   -3.5218    0.0000 C   0  0  0  0  0  0  0  0  0
    1.8909   -4.0544    0.0000 C   0  0  0  0  0  0  0  0  0
    2.6672   -3.7751    0.0000 C   0  0  0  0  0  0  0  0  0
    3.2973   -4.3077    0.0000 C   0  0  0  0  0  0  0  0  0
    4.0735   -4.0284    0.0000 C   0  0  0  0  0  0  0  0  0
    4.7036   -4.5610    0.0000 C   0  0  0  0  0  0  0  0  0
    4.5573   -5.3730    0.0000 C   0  0  0  0  0  0  0  0  0
    3.7810   -5.6523    0.0000 C   0  0  0  0  0  0  0  0  0
    3.1510   -5.1197    0.0000 C   0  0  0  0  0  0  0  0  0
  1  2  1  0  0  0  0
  1 17  1  0  0  0  0
  2  3  2  0  0  0  0
  3  4  1  0  0  0  0
  3 16  1  0  0  0  0
  4  5  1  0  0  0  0
  4 17  1  0  0  0  0
  5  6  1  0  0  0  0
  6  7  1  0  0  0  0
  7  8  4  0  0  0  0
  7 16  4  0  0  0  0
  8  9  4  0  0  0  0
  9 10  1  0  0  0  0
  9 12  4  0  0  0  0
 10 11  1  0  0  0  0
 12 13  1  0  0  0  0
 12 15  4  0  0  0  0
 13 14  1  0  0  0  0
 15 16  4  0  0  0  0
 17 18  1  0  0  0  0
 18 19  1  0  0  0  0
 19 20  1  0  0  0  0
 19 24  1  0  0  0  0
 20 21  1  0  0  0  0
 21 22  1  0  0  0  0
 22 23  1  0  0  0  0
 22 25  1  0  0  0  0
 23 24  1  0  0  0  0
 25 26  1  0  0  0  0
 26 27  1  0  0  0  0
 27 28  1  0  0  0  0
 28 29  2  0  0  0  0
 29 30  1  0  0  0  0
 30 31  4  0  0  0  0
 30 35  4  0  0  0  0
 31 32  4  0  0  0  0
 32 33  4  0  0  0  0
 33 34  4  0  0  0  0
 34 35  4  0  0  0  0
M  END
>  <Name_Molregno>
296899

>  <5-HT1A>
6

>  <5-HT2A>
6

>  <5-HT2C>
6

>  <5-HT7>
6

>  <Alpha-2A>
8.59

>  <Alpha-2B>
7.85

>  <Alpha-2C>
8.52

>  <DOPAMINE D3>
6.57

>  <DOPAMINE D4>
6

>  <HISTAMINE H1>
6

>  <Serotonin transporter>
8.5

$$$$
296920
  Marvin  02231216192D 0   1.00000     0.00000     0

 37 42  0  0  1  0  0  0  0  0999 V2000
   -1.2093    0.9861    0.0000 O   0  0  0  0  0  0  0  0  0
   -1.7613    0.3730    0.0000 N   0  0  0  0  0  0  0  0  0
   -1.3488   -0.3415    0.0000 C   0  0  0  0  0  0  0  0  0
   -0.5418   -0.1700    0.0000 C   0  0  0  0  0  0  0  0  0
    0.0102   -0.7830    0.0000 C   0  0  0  0  0  0  0  0  0
   -0.2447   -1.5677    0.0000 O   0  0  0  0  0  0  0  0  0
   -1.0517   -1.7392    0.0000 C   0  0  0  0  0  0  0  0  0
   -1.3066   -2.5238    0.0000 C   0  0  0  0  0  0  0  0  0
   -2.1136   -2.6953    0.0000 C   0  0  0  0  0  0  0  0  0
   -2.3686   -3.4800    0.0000 O   0  0  0  0  0  0  0  0  0
   -3.1755   -3.6515    0.0000 C   0  0  0  0  0  0  0  0  0
   -2.6656   -2.0823    0.0000 C   0  0  0  0  0  0  0  0  0
   -3.4726   -2.2538    0.0000 O   0  0  0  0  0  0  0  0  0
   -4.0247   -1.6407    0.0000 C   0  0  0  0  0  0  0  0  0
   -2.4107   -1.2976    0.0000 C   0  0  0  0  0  0  0  0  0
   -1.6037   -1.1261    0.0000 C   0  0  0  0  0  0  0  0  0
   -0.4556    0.6505    0.0000 C   0  0  0  0  0  0  0  0  0
    0.2589    1.0630    0.0000 C   0  0  0  0  0  0  0  0  0
    0.9734    0.6505    0.0000 N   0  0  0  0  0  0  0  0  0
    1.6878    1.0630    0.0000 C   0  0  0  0  0  0  0  0  0
    2.4023    0.6505    0.0000 C   0  0  0  0  0  0  0  0  0
    2.4023   -0.1745    0.0000 N   0  0  0  0  0  0  0  0  0
    1.6878   -0.5870    0.0000 C   0  0  0  0  0  0  0  0  0
    0.9734   -0.1745    0.0000 C   0  0  0  0  0  0  0  0  0
    3.1168   -0.5870    0.0000 C   0  0  0  0  0  0  0  0  0
    3.8312   -0.1745    0.0000 C   0  0  0  0  0  0  0  0  0
    4.5457   -0.5870    0.0000 C   0  0  0  0  0  0  0  0  0
    5.2602   -0.1745    0.0000 C   0  0  0  0  0  0  0  0  0
    5.9747   -0.5870    0.0000 C   0  0  0  0  0  0  0  0  0
    6.6891   -0.1745    0.0000 C   0  0  0  0  0  0  0  0  0
    6.6891    0.6505    0.0000 C   0  0  0  0  0  0  0  0  0
    5.9747    1.0630    0.0000 C   0  0  0  0  0  0  0  0  0
    5.2602    0.6505    0.0000 C   0  0  0  0  0  0  0  0  0
    7.4036    1.0630    0.0000 C   0  0  0  0  0  0  0  0  0
    8.1181    0.6505    0.0000 C   0  0  0  0  0  0  0  0  0
    8.1181   -0.1745    0.0000 C   0  0  0  0  0  0  0  0  0
    7.4036   -0.5870    0.0000 C   0  0  0  0  0  0  0  0  0
  1  2  1  0  0  0  0
  1 17  1  0  0  0  0
  2  3  2  0  0  0  0
  3  4  1  0  0  0  0
  3 16  1  0  0  0  0
  4  5  1  0  0  0  0
  4 17  1  0  0  0  0
  5  6  1  0  0  0  0
  6  7  1  0  0  0  0
  7  8  4  0  0  0  0
  7 16  4  0  0  0  0
  8  9  4  0  0  0  0
  9 10  1  0  0  0  0
  9 12  4  0  0  0  0
 10 11  1  0  0  0  0
 12 13  1  0  0  0  0
 12 15  4  0  0  0  0
 13 14  1  0  0  0  0
 15 16  4  0  0  0  0
 17 18  1  0  0  0  0
 18 19  1  0  0  0  0
 19 20  1  0  0  0  0
 19 24  1  0  0  0  0
 20 21  1  0  0  0  0
 21 22  1  0  0  0  0
 22 23  1  0  0  0  0
 22 25  1  0  0  0  0
 23 24  1  0  0  0  0
 25 26  1  0  0  0  0
 26 27  1  0  0  0  0
 27 28  1  0  0  0  0
 28 29  4  0  0  0  0
 28 33  4  0  0  0  0
 29 30  4  0  0  0  0
 30 31  4  0  0  0  0
 30 37  4  0  0  0  0
 31 32  4  0  0  0  0
 31 34  4  0  0  0  0
 32 33  4  0  0  0  0
 34 35  4  0  0  0  0
 35 36  4  0  0  0  0
 36 37  4  0  0  0  0
M  END
>  <Name_Molregno>
296920

>  <5-HT1A>
6

>  <5-HT2A>
6

>  <5-HT2C>
6

>  <5-HT7>
6

>  <Alpha-2A>
8.6

>  <Alpha-2B>
7.85

>  <Alpha-2C>
8.81

>  <DOPAMINE D3>
6.97

>  <DOPAMINE D4>
6

>  <HISTAMINE H1>
6.34

>  <Serotonin transporter>
8.77

$$$$
296939
  Marvin  02231216192D 0   1.00000     0.00000     0

 36 40  0  0  1  0  0  0  0  0999 V2000
    1.5477    2.2344    0.0000 O   0  0  0  0  0  0  0  0  0
    0.7839    2.5463    0.0000 N   0  0  0  0  0  0  0  0  0
    0.2513    1.9162    0.0000 C   0  0  0  0  0  0  0  0  0
    0.6859    1.2150    0.0000 C   0  0  0  0  0  0  0  0  0
    0.2959    0.4880    0.0000 C   0  0  0  0  0  0  0  0  0
   -0.5287    0.4622    0.0000 O   0  0  0  0  0  0  0  0  0
   -0.9633    1.1635    0.0000 C   0  0  0  0  0  0  0  0  0
   -1.7879    1.1377    0.0000 C   0  0  0  0  0  0  0  0  0
   -2.2225    1.8389    0.0000 C   0  0  0  0  0  0  0  0  0
   -3.0471    1.8132    0.0000 O   0  0  0  0  0  0  0  0  0
   -3.4817    2.5144    0.0000 C   0  0  0  0  0  0  0  0  0
   -1.8325    2.5659    0.0000 C   0  0  0  0  0  0  0  0  0
   -2.2672    3.2672    0.0000 O   0  0  0  0  0  0  0  0  0
   -1.8772    3.9942    0.0000 C   0  0  0  0  0  0  0  0  0
   -1.0079    2.5917    0.0000 C   0  0  0  0  0  0  0  0  0
   -0.5733    1.8905    0.0000 C   0  0  0  0  0  0  0  0  0
    1.4871    1.4116    0.0000 C   0  0  0  0  0  0  0  0  0
    2.1171    0.8790    0.0000 C   0  0  0  0  0  0  0  0  0
    1.9709    0.0671    0.0000 N   0  0  0  0  0  0  0  0  0
    2.6009   -0.4655    0.0000 C   0  0  0  0  0  0  0  0  0
    2.4547   -1.2775    0.0000 C   0  0  0  0  0  0  0  0  0
    1.6784   -1.5568    0.0000 N   0  0  0  0  0  0  0  0  0
    1.0484   -1.0242    0.0000 C   0  0  0  0  0  0  0  0  0
    1.1946   -0.2122    0.0000 C   0  0  0  0  0  0  0  0  0
    1.5322   -2.3687    0.0000 C   0  0  0  0  0  0  0  0  0
    2.1622   -2.9013    0.0000 C   0  0  0  0  0  0  0  0  0
    2.9385   -2.6220    0.0000 C   0  0  0  0  0  0  0  0  0
    3.5685   -3.1546    0.0000 C   0  0  0  0  0  0  0  0  0
    4.3448   -2.8753    0.0000 C   0  0  0  0  0  0  0  0  0
    4.4910   -2.0634    0.0000 C   0  0  0  0  0  0  0  0  0
    3.8610   -1.5308    0.0000 C   0  0  0  0  0  0  0  0  0
    4.0072   -0.7188    0.0000 C   0  0  0  0  0  0  0  0  0
    4.7835   -0.4395    0.0000 C   0  0  0  0  0  0  0  0  0
    5.4135   -0.9721    0.0000 C   0  0  0  0  0  0  0  0  0
    5.2673   -1.7841    0.0000 C   0  0  0  0  0  0  0  0  0
    3.4223   -3.9666    0.0000 C   0  0  0  0  0  0  0  0  0
  1  2  1  0  0  0  0
  1 17  1  0  0  0  0
  2  3  2  0  0  0  0
  3  4  1  0  0  0  0
  3 16  1  0  0  0  0
  4  5  1  0  0  0  0
  4 17  1  0  0  0  0
  5  6  1  0  0  0  0
  6  7  1  0  0  0  0
  7  8  4  0  0  0  0
  7 16  4  0  0  0  0
  8  9  4  0  0  0  0
  9 10  1  0  0  0  0
  9 12  4  0  0  0  0
 10 11  1  0  0  0  0
 12 13  1  0  0  0  0
 12 15  4  0  0  0  0
 13 14  1  0  0  0  0
 15 16  4  0  0  0  0
 17 18  1  0  0  0  0
 18 19  1  0  0  0  0
 19 20  1  0  0  0  0
 19 24  1  0  0  0  0
 20 21  1  0  0  0  0
 21 22  1  0  0  0  0
 22 23  1  0  0  0  0
 22 25  1  0  0  0  0
 23 24  1  0  0  0  0
 25 26  1  0  0  0  0
 26 27  1  0  0  0  0
 27 28  1  0  0  0  0
 28 29  2  0  0  0  0
 28 36  1  0  0  0  0
 29 30  1  0  0  0  0
 30 31  4  0  0  0  0
 30 35  4  0  0  0  0
 31 32  4  0  0  0  0
 32 33  4  0  0  0  0
 33 34  4  0  0  0  0
 34 35  4  0  0  0  0
M  END
>  <Name_Molregno>
296939

>  <5-HT1A>
6.32

>  <5-HT2A>
6

>  <5-HT2C>
6

>  <5-HT7>
6

>  <Alpha-2A>
9.31

>  <Alpha-2B>
8.52

>  <Alpha-2C>
9.85

>  <DOPAMINE D3>
6.36

>  <DOPAMINE D4>
6

>  <HISTAMINE H1>
6.95

>  <Serotonin transporter>
8.46

$$$$
297525
  Marvin  02231216192D 0   1.00000     0.00000     0

 33 36  0  0  0  0  0  0  0  0999 V2000
   -8.3782    2.7133    0.0000 Cl  0  0  0  0  0  0  0  0  0
   -8.3782    1.8883    0.0000 C   0  0  0  0  0  0  0  0  0
   -7.6637    1.4758    0.0000 C   0  0  0  0  0  0  0  0  0
   -6.9492    1.8883    0.0000 N   0  0  0  0  0  0  0  0  0
   -6.9492    2.7133    0.0000 C   0  0  0  0  0  0  0  0  0
   -6.2347    3.1258    0.0000 C   0  0  0  0  0  0  0  0  0
   -5.5203    2.7133    0.0000 N   0  0  0  0  0  0  0  0  0
   -5.5203    1.8883    0.0000 C   0  0  0  0  0  0  0  0  0
   -6.2347    1.4758    0.0000 C   0  0  0  0  0  0  0  0  0
   -4.8058    3.1258    0.0000 C   0  0  0  0  0  0  0  0  0
   -4.0913    2.7133    0.0000 C   0  0  0  0  0  0  0  0  0
   -4.0913    1.8883    0.0000 C   0  0  0  0  0  0  0  0  0
   -3.3769    1.4758    0.0000 C   0  0  0  0  0  0  0  0  0
   -3.3769    0.6508    0.0000 N   0  0  0  0  0  0  0  0  0
   -2.6624    0.2383    0.0000 C   0  0  0  0  0  0  0  0  0
   -1.9479    0.6508    0.0000 O   0  0  0  0  0  0  0  0  0
   -2.6624   -0.5867    0.0000 C   0  0  0  0  0  0  0  0  0
   -1.9479   -0.9992    0.0000 C   0  0  0  0  0  0  0  0  0
   -1.9479   -1.8242    0.0000 C   0  0  0  0  0  0  0  0  0
   -2.6624   -2.2367    0.0000 C   0  0  0  0  0  0  0  0  0
   -3.3769   -1.8242    0.0000 C   0  0  0  0  0  0  0  0  0
   -3.3769   -0.9992    0.0000 C   0  0  0  0  0  0  0  0  0
   -2.6624   -3.0617    0.0000 C   0  0  0  0  0  0  0  0  0
   -1.9479   -3.4742    0.0000 N   0  0  0  0  0  0  0  0  0
   -1.9479   -4.2992    0.0000 C   0  0  0  0  0  0  0  0  0
   -2.6624   -4.7117    0.0000 C   0  0  0  0  0  0  0  0  0
   -3.3769   -4.2992    0.0000 C   0  0  0  0  0  0  0  0  0
   -3.3769   -3.4742    0.0000 C   0  0  0  0  0  0  0  0  0
   -7.6637    0.6508    0.0000 C   0  0  0  0  0  0  0  0  0
   -8.3782    0.2383    0.0000 C   0  0  0  0  0  0  0  0  0
   -9.0926    0.6508    0.0000 C   0  0  0  0  0  0  0  0  0
   -9.0926    1.4758    0.0000 C   0  0  0  0  0  0  0  0  0
   -9.8071    1.8883    0.0000 Cl  0  0  0  0  0  0  0  0  0
  1  2  1  0  0  0  0
  2  3  4  0  0  0  0
  2 32  4  0  0  0  0
  3  4  1  0  0  0  0
  3 29  4  0  0  0  0
  4  5  1  0  0  0  0
  4  9  1  0  0  0  0
  5  6  1  0  0  0  0
  6  7  1  0  0  0  0
  7  8  1  0  0  0  0
  7 10  1  0  0  0  0
  8  9  1  0  0  0  0
 10 11  1  0  0  0  0
 11 12  2  0  0  0  0
 12 13  1  0  0  0  0
 13 14  1  0  0  0  0
 14 15  1  0  0  0  0
 15 16  2  0  0  0  0
 15 17  1  0  0  0  0
 17 18  4  0  0  0  0
 17 22  4  0  0  0  0
 18 19  4  0  0  0  0
 19 20  4  0  0  0  0
 20 21  4  0  0  0  0
 20 23  1  0  0  0  0
 21 22  4  0  0  0  0
 23 24  4  0  0  0  0
 23 28  4  0  0  0  0
 24 25  4  0  0  0  0
 25 26  4  0  0  0  0
 26 27  4  0  0  0  0
 27 28  4  0  0  0  0
 29 30  4  0  0  0  0
 30 31  4  0  0  0  0
 31 32  4  0  0  0  0
 32 33  1  0  0  0  0
M  END
>  <Name_Molregno>
297525

>  <5-HT1A>
7.07

>  <5-HT2A>
7.2

>  <5-HT2C>
7.33

>  <DOPAMINE D2>
7.02

>  <DOPAMINE D3>
9.03

>  <DOPAMINE D4>
6.43

$$$$
299800
  Marvin  02231216192D 0   1.00000     0.00000     0

 21 24  0  0  0  0  0  0  0  0999 V2000
    1.4498    0.4437    0.0000 N   0  0  0  0  0  0  0  0  0
    1.6423   -0.3585    0.0000 C   0  0  0  0  0  0  0  0  0
    2.4648   -0.4233    0.0000 C   0  0  0  0  0  0  0  0  0
    2.7805    0.3389    0.0000 C   0  0  0  0  0  0  0  0  0
    2.1532    0.8747    0.0000 C   0  0  0  0  0  0  0  0  0
    1.1352   -1.0092    0.0000 C   0  0  0  0  0  0  0  0  0
    1.5014   -1.7485    0.0000 N   0  0  0  0  0  0  0  0  0
    2.3248   -1.8009    0.0000 C   0  0  0  0  0  0  0  0  0
    2.6910   -2.5402    0.0000 C   0  0  0  0  0  0  0  0  0
    2.2339   -3.2270    0.0000 N   0  0  0  0  0  0  0  0  0
    1.4106   -3.1745    0.0000 C   0  0  0  0  0  0  0  0  0
    1.0444   -2.4353    0.0000 C   0  0  0  0  0  0  0  0  0
    2.6002   -3.9662    0.0000 C   0  0  0  0  0  0  0  0  0
    0.3103   -1.0185    0.0000 C   0  0  0  0  0  0  0  0  0
   -0.2113   -0.3792    0.0000 C   0  0  0  0  0  0  0  0  0
   -0.0367    0.4271    0.0000 C   0  0  0  0  0  0  0  0  0
    0.7025    0.7933    0.0000 C   0  0  0  0  0  0  0  0  0
   -0.6477    0.9814    0.0000 C   0  0  0  0  0  0  0  0  0
   -1.4333    0.7295    0.0000 C   0  0  0  0  0  0  0  0  0
   -1.6079   -0.0769    0.0000 C   0  0  0  0  0  0  0  0  0
   -0.9969   -0.6312    0.0000 C   0  0  0  0  0  0  0  0  0
  1  2  4  0  0  0  0
  1  5  4  0  0  0  0
  1 17  1  0  0  0  0
  2  3  4  0  0  0  0
  2  6  1  0  0  0  0
  3  4  4  0  0  0  0
  4  5  4  0  0  0  0
  6  7  1  0  0  0  0
  6 14  2  0  0  0  0
  7  8  1  0  0  0  0
  7 12  1  0  0  0  0
  8  9  1  0  0  0  0
  9 10  1  0  0  0  0
 10 11  1  0  0  0  0
 10 13  1  0  0  0  0
 11 12  1  0  0  0  0
 14 15  1  0  0  0  0
 15 16  4  0  0  0  0
 15 21  4  0  0  0  0
 16 17  1  0  0  0  0
 16 18  4  0  0  0  0
 18 19  4  0  0  0  0
 19 20  4  0  0  0  0
 20 21  4  0  0  0  0
M  END
>  <Name_Molregno>
299800

>  <5-HT2A>
8.27

$$$$
300135
  Marvin  02231216192D 0   1.00000     0.00000     0

 25 28  0  0  0  0  0  0  0  0999 V2000
   -0.0061    0.0907    0.0000 Cl  0  0  0  0  0  0  0  0  0
    0.5459    0.7038    0.0000 C   0  0  0  0  0  0  0  0  0
    0.2910    1.4884    0.0000 C   0  0  0  0  0  0  0  0  0
    0.8430    2.1015    0.0000 C   0  0  0  0  0  0  0  0  0
    1.6500    1.9300    0.0000 C   0  0  0  0  0  0  0  0  0
    1.9049    1.1454    0.0000 C   0  0  0  0  0  0  0  0  0
    1.3529    0.5323    0.0000 C   0  0  0  0  0  0  0  0  0
    1.6079   -0.2524    0.0000 S   0  0  0  0  0  0  0  0  0
    0.8232   -0.5073    0.0000 O   0  0  0  0  0  0  0  0  0
    2.3925    0.0026    0.0000 O   0  0  0  0  0  0  0  0  0
    1.8628   -1.0370    0.0000 N   0  0  0  0  0  0  0  0  0
    1.3779   -1.7044    0.0000 C   0  0  0  0  0  0  0  0  0
    1.8628   -2.3719    0.0000 C   0  0  0  0  0  0  0  0  0
    2.6474   -2.1169    0.0000 C   0  0  0  0  0  0  0  0  0
    2.6474   -1.2919    0.0000 C   0  0  0  0  0  0  0  0  0
    3.3619   -0.8794    0.0000 C   0  0  0  0  0  0  0  0  0
    4.0764   -1.2919    0.0000 C   0  0  0  0  0  0  0  0  0
    4.0764   -2.1169    0.0000 C   0  0  0  0  0  0  0  0  0
    3.3619   -2.5294    0.0000 C   0  0  0  0  0  0  0  0  0
    1.6079   -3.1565    0.0000 C   0  0  0  0  0  0  0  0  0
    2.1599   -3.7696    0.0000 C   0  0  0  0  0  0  0  0  0
    1.9049   -4.5542    0.0000 C   0  0  0  0  0  0  0  0  0
    1.0980   -4.7257    0.0000 N   0  0  0  0  0  0  0  0  0
    0.5459   -4.1126    0.0000 C   0  0  0  0  0  0  0  0  0
    0.8009   -3.3280    0.0000 C   0  0  0  0  0  0  0  0  0
  1  2  1  0  0  0  0
  2  3  4  0  0  0  0
  2  7  4  0  0  0  0
  3  4  4  0  0  0  0
  4  5  4  0  0  0  0
  5  6  4  0  0  0  0
  6  7  4  0  0  0  0
  7  8  1  0  0  0  0
  8  9  2  0  0  0  0
  8 10  2  0  0  0  0
  8 11  1  0  0  0  0
 11 12  4  0  0  0  0
 11 15  4  0  0  0  0
 12 13  4  0  0  0  0
 13 14  4  0  0  0  0
 13 20  1  0  0  0  0
 14 15  4  0  0  0  0
 14 19  4  0  0  0  0
 15 16  4  0  0  0  0
 16 17  4  0  0  0  0
 17 18  4  0  0  0  0
 18 19  4  0  0  0  0
 20 21  1  0  0  0  0
 20 25  2  0  0  0  0
 21 22  1  0  0  0  0
 22 23  1  0  0  0  0
 23 24  1  0  0  0  0
 24 25  1  0  0  0  0
M  END
>  <Name_Molregno>
300135

>  <5-HT1A>
5.7

>  <5-HT2A>
6.22

>  <5-HT2C>
6.42

>  <5-HT6>
9.4

>  <DOPAMINE D2>
5.7

>  <DOPAMINE D3>
6.2

>  <DOPAMINE D4>
5.3

$$$$
300585
  Marvin  02231216192D 0   1.00000     0.00000     0

 27 30  0  0  0  0  0  0  0  0999 V2000
    3.7043    2.2413    0.0000 F   0  0  0  0  0  0  0  0  0
    3.7043    1.4163    0.0000 C   0  0  0  0  0  0  0  0  0
    4.4188    1.0038    0.0000 C   0  0  0  0  0  0  0  0  0
    4.4188    0.1788    0.0000 C   0  0  0  0  0  0  0  0  0
    3.7043   -0.2337    0.0000 C   0  0  0  0  0  0  0  0  0
    2.9899    0.1788    0.0000 C   0  0  0  0  0  0  0  0  0
    2.9899    1.0038    0.0000 C   0  0  0  0  0  0  0  0  0
    3.7043   -1.0587    0.0000 C   0  0  0  0  0  0  0  0  0
    2.9899   -1.4712    0.0000 C   0  0  0  0  0  0  0  0  0
    2.9899   -2.2962    0.0000 C   0  0  0  0  0  0  0  0  0
    3.7043   -2.7087    0.0000 N   0  0  0  0  0  0  0  0  0
    4.4188   -2.2962    0.0000 C   0  0  0  0  0  0  0  0  0
    4.4188   -1.4712    0.0000 C   0  0  0  0  0  0  0  0  0
    5.0022   -0.8879    0.0000 C   0  0  0  0  0  0  0  0  0
    5.8272   -0.8879    0.0000 C   0  0  0  0  0  0  0  0  0
    6.4105   -1.4712    0.0000 C   0  0  0  0  0  0  0  0  0
    6.4105   -2.2962    0.0000 C   0  0  0  0  0  0  0  0  0
    5.8272   -2.8796    0.0000 C   0  0  0  0  0  0  0  0  0
    5.0022   -2.8796    0.0000 C   0  0  0  0  0  0  0  0  0
    2.2754   -2.7087    0.0000 N   0  0  0  0  0  0  0  0  0
    2.2754   -3.5337    0.0000 C   0  0  0  0  0  0  0  0  0
    1.5609   -3.9462    0.0000 C   0  0  0  0  0  0  0  0  0
    0.8464   -3.5337    0.0000 N   0  0  0  0  0  0  0  0  0
    0.8464   -2.7087    0.0000 C   0  0  0  0  0  0  0  0  0
    1.5609   -2.2962    0.0000 C   0  0  0  0  0  0  0  0  0
    0.1320   -3.9462    0.0000 C   0  0  0  0  0  0  0  0  0
    0.1320   -4.7712    0.0000 C   0  0  0  0  0  0  0  0  0
  1  2  1  0  0  0  0
  2  3  4  0  0  0  0
  2  7  4  0  0  0  0
  3  4  4  0  0  0  0
  4  5  4  0  0  0  0
  5  6  4  0  0  0  0
  5  8  1  0  0  0  0
  6  7  4  0  0  0  0
  8  9  4  0  0  0  0
  8 13  4  0  0  0  0
  9 10  4  0  0  0  0
 10 11  4  0  0  0  0
 10 20  1  0  0  0  0
 11 12  4  0  0  0  0
 12 13  4  0  0  0  0
 12 19  1  0  0  0  0
 13 14  1  0  0  0  0
 14 15  1  0  0  0  0
 15 16  1  0  0  0  0
 16 17  1  0  0  0  0
 17 18  1  0  0  0  0
 18 19  1  0  0  0  0
 20 21  1  0  0  0  0
 20 25  1  0  0  0  0
 21 22  1  0  0  0  0
 22 23  1  0  0  0  0
 23 24  1  0  0  0  0
 23 26  1  0  0  0  0
 24 25  1  0  0  0  0
 26 27  1  0  0  0  0
M  END
>  <Name_Molregno>
300585

>  <5-HT2A>
9.09

>  <DOPAMINE D2>
9.85

$$$$
300623
  Marvin  02231216192D 0   1.00000     0.00000     0

 28 31  0  0  1  0  0  0  0  0999 V2000
   -1.8599    0.6805    0.0000 F   0  0  0  0  0  0  0  0  0
   -1.8599   -0.1445    0.0000 C   0  0  0  0  0  0  0  0  0
   -1.1455   -0.5570    0.0000 C   0  0  0  0  0  0  0  0  0
   -1.1455   -1.3820    0.0000 C   0  0  0  0  0  0  0  0  0
   -1.8599   -1.7945    0.0000 C   0  0  0  0  0  0  0  0  0
   -2.5744   -1.3820    0.0000 C   0  0  0  0  0  0  0  0  0
   -2.5744   -0.5570    0.0000 C   0  0  0  0  0  0  0  0  0
   -1.8599   -2.6195    0.0000 C   0  0  0  0  0  0  0  0  0
   -2.5744   -3.0320    0.0000 C   0  0  0  0  0  0  0  0  0
   -2.5744   -3.8570    0.0000 C   0  0  0  0  0  0  0  0  0
   -1.8599   -4.2695    0.0000 N   0  0  0  0  0  0  0  0  0
   -1.1455   -3.8570    0.0000 C   0  0  0  0  0  0  0  0  0
   -1.1455   -3.0320    0.0000 C   0  0  0  0  0  0  0  0  0
   -0.5621   -2.4487    0.0000 C   0  0  0  0  0  0  0  0  0
    0.2629   -2.4487    0.0000 C   0  0  0  0  0  0  0  0  0
    0.8463   -3.0320    0.0000 C   0  0  0  0  0  0  0  0  0
    1.6085   -2.7163    0.0000 O   0  0  0  0  0  0  0  0  0
    0.8463   -3.8570    0.0000 C   0  0  0  0  0  0  0  0  0
    0.2629   -4.4404    0.0000 C   0  0  0  0  0  0  0  0  0
   -0.5621   -4.4404    0.0000 C   0  0  0  0  0  0  0  0  0
   -3.2889   -4.2695    0.0000 N   0  0  0  0  0  0  0  0  0
   -3.2889   -5.0945    0.0000 C   0  0  0  0  0  0  0  0  0
   -4.0034   -5.5070    0.0000 C   0  0  0  0  0  0  0  0  0
   -4.7178   -5.0945    0.0000 N   0  0  0  0  0  0  0  0  0
   -4.7178   -4.2695    0.0000 C   0  0  0  0  0  0  0  0  0
   -4.0034   -3.8570    0.0000 C   0  0  0  0  0  0  0  0  0
   -5.4323   -5.5070    0.0000 C   0  0  0  0  0  0  0  0  0
   -5.4323   -6.3320    0.0000 C   0  0  0  0  0  0  0  0  0
  1  2  1  0  0  0  0
  2  3  4  0  0  0  0
  2  7  4  0  0  0  0
  3  4  4  0  0  0  0
  4  5  4  0  0  0  0
  5  6  4  0  0  0  0
  5  8  1  0  0  0  0
  6  7  4  0  0  0  0
  8  9  4  0  0  0  0
  8 13  4  0  0  0  0
  9 10  4  0  0  0  0
 10 11  4  0  0  0  0
 10 21  1  0  0  0  0
 11 12  4  0  0  0  0
 12 13  4  0  0  0  0
 12 20  1  0  0  0  0
 13 14  1  0  0  0  0
 14 15  1  0  0  0  0
 15 16  1  0  0  0  0
 16 17  1  0  0  0  0
 16 18  1  0  0  0  0
 18 19  1  0  0  0  0
 19 20  1  0  0  0  0
 21 22  1  0  0  0  0
 21 26  1  0  0  0  0
 22 23  1  0  0  0  0
 23 24  1  0  0  0  0
 24 25  1  0  0  0  0
 24 27  1  0  0  0  0
 25 26  1  0  0  0  0
 27 28  1  0  0  0  0
M  END
>  <Name_Molregno>
300623

>  <5-HT2A>
7.78

>  <DOPAMINE D2>
7.94

$$$$
300656
  Marvin  02231216192D 0   1.00000     0.00000     0

 28 31  0  0  1  0  0  0  0  0999 V2000
    2.1628    0.6710    0.0000 F   0  0  0  0  0  0  0  0  0
    2.1628   -0.1540    0.0000 C   0  0  0  0  0  0  0  0  0
    2.8773   -0.5665    0.0000 C   0  0  0  0  0  0  0  0  0
    2.8773   -1.3915    0.0000 C   0  0  0  0  0  0  0  0  0
    2.1628   -1.8040    0.0000 C   0  0  0  0  0  0  0  0  0
    1.4483   -1.3915    0.0000 C   0  0  0  0  0  0  0  0  0
    1.4483   -0.5665    0.0000 C   0  0  0  0  0  0  0  0  0
    2.1628   -2.6290    0.0000 C   0  0  0  0  0  0  0  0  0
    1.4483   -3.0415    0.0000 C   0  0  0  0  0  0  0  0  0
    1.4483   -3.8665    0.0000 C   0  0  0  0  0  0  0  0  0
    2.1628   -4.2790    0.0000 N   0  0  0  0  0  0  0  0  0
    2.8773   -3.8665    0.0000 C   0  0  0  0  0  0  0  0  0
    2.8773   -3.0415    0.0000 C   0  0  0  0  0  0  0  0  0
    3.4606   -2.4582    0.0000 C   0  0  0  0  0  0  0  0  0
    4.2856   -2.4582    0.0000 C   0  0  0  0  0  0  0  0  0
    4.8690   -3.0415    0.0000 C   0  0  0  0  0  0  0  0  0
    4.8690   -3.8665    0.0000 C   0  0  0  0  0  0  0  0  0
    5.6312   -4.1823    0.0000 O   0  0  0  0  0  0  0  0  0
    4.2856   -4.4499    0.0000 C   0  0  0  0  0  0  0  0  0
    3.4606   -4.4499    0.0000 C   0  0  0  0  0  0  0  0  0
    0.7339   -4.2790    0.0000 N   0  0  0  0  0  0  0  0  0
    0.7339   -5.1040    0.0000 C   0  0  0  0  0  0  0  0  0
    0.0194   -5.5165    0.0000 C   0  0  0  0  0  0  0  0  0
   -0.6951   -5.1040    0.0000 N   0  0  0  0  0  0  0  0  0
   -0.6951   -4.2790    0.0000 C   0  0  0  0  0  0  0  0  0
    0.0194   -3.8665    0.0000 C   0  0  0  0  0  0  0  0  0
   -1.4096   -5.5165    0.0000 C   0  0  0  0  0  0  0  0  0
   -1.4096   -6.3415    0.0000 C   0  0  0  0  0  0  0  0  0
  1  2  1  0  0  0  0
  2  3  4  0  0  0  0
  2  7  4  0  0  0  0
  3  4  4  0  0  0  0
  4  5  4  0  0  0  0
  5  6  4  0  0  0  0
  5  8  1  0  0  0  0
  6  7  4  0  0  0  0
  8  9  4  0  0  0  0
  8 13  4  0  0  0  0
  9 10  4  0  0  0  0
 10 11  4  0  0  0  0
 10 21  1  0  0  0  0
 11 12  4  0  0  0  0
 12 13  4  0  0  0  0
 12 20  1  0  0  0  0
 13 14  1  0  0  0  0
 14 15  1  0  0  0  0
 15 16  1  0  0  0  0
 16 17  1  0  0  0  0
 17 18  1  0  0  0  0
 17 19  1  0  0  0  0
 19 20  1  0  0  0  0
 21 22  1  0  0  0  0
 21 26  1  0  0  0  0
 22 23  1  0  0  0  0
 23 24  1  0  0  0  0
 24 25  1  0  0  0  0
 24 27  1  0  0  0  0
 25 26  1  0  0  0  0
 27 28  1  0  0  0  0
M  END
>  <Name_Molregno>
300656

>  <5-HT2A>
7.88

>  <DOPAMINE D2>
8.18

$$$$
301027
  Marvin  02231216192D 0   1.00000     0.00000     0

 28 30  0  0  1  0  0  0  0  0999 V2000
    0.0991   -0.0161    0.0000 F   0  0  0  0  0  0  0  0  0
    0.0991   -0.8411    0.0000 C   0  0  0  0  0  0  0  0  0
    0.8135   -1.2536    0.0000 C   0  0  0  0  0  0  0  0  0
    0.8135   -2.0786    0.0000 C   0  0  0  0  0  0  0  0  0
    1.5280   -2.4911    0.0000 F   0  0  0  0  0  0  0  0  0
    0.0991   -2.4911    0.0000 C   0  0  0  0  0  0  0  0  0
   -0.6154   -2.0786    0.0000 C   0  0  0  0  0  0  0  0  0
   -0.6154   -1.2536    0.0000 C   0  0  0  0  0  0  0  0  0
   -1.3299   -0.8411    0.0000 C   0  0  0  0  0  0  0  0  0
   -2.0443   -1.2536    0.0000 C   0  0  0  0  0  0  0  0  0
   -2.7588   -0.8411    0.0000 N   0  0  0  0  0  0  0  0  0
   -3.4733   -1.2536    0.0000 C   0  0  0  0  0  0  0  0  0
   -4.1878   -0.8411    0.0000 C   0  0  0  0  0  0  0  0  0
   -4.1878   -0.0161    0.0000 C   0  0  0  0  0  0  0  0  0
   -3.4733    0.3964    0.0000 C   0  0  0  0  0  0  0  0  0
   -2.7588   -0.0161    0.0000 C   0  0  0  0  0  0  0  0  0
   -4.9022    0.3964    0.0000 C   0  0  0  0  0  0  0  0  0
   -4.9022    1.2214    0.0000 O   0  0  0  0  0  0  0  0  0
   -5.6167   -0.0161    0.0000 C   0  0  0  0  0  0  0  0  0
   -5.6167   -0.8411    0.0000 C   0  0  0  0  0  0  0  0  0
   -6.3312   -1.2536    0.0000 C   0  0  0  0  0  0  0  0  0
   -7.0456   -0.8411    0.0000 C   0  0  0  0  0  0  0  0  0
   -7.0456   -0.0161    0.0000 C   0  0  0  0  0  0  0  0  0
   -7.7601    0.3964    0.0000 O   0  0  0  0  0  0  0  0  0
   -8.4746   -0.0161    0.0000 C   0  0  0  0  0  0  0  0  0
   -6.3312    0.3964    0.0000 C   0  0  0  0  0  0  0  0  0
   -6.3312    1.2214    0.0000 O   0  0  0  0  0  0  0  0  0
   -7.0456    1.6339    0.0000 C   0  0  0  0  0  0  0  0  0
  1  2  1  0  0  0  0
  2  3  4  0  0  0  0
  2  8  4  0  0  0  0
  3  4  4  0  0  0  0
  4  5  1  0  0  0  0
  4  6  4  0  0  0  0
  6  7  4  0  0  0  0
  7  8  4  0  0  0  0
  8  9  1  0  0  0  0
  9 10  1  0  0  0  0
 10 11  1  0  0  0  0
 11 12  1  0  0  0  0
 11 16  1  0  0  0  0
 12 13  1  0  0  0  0
 13 14  1  0  0  0  0
 14 15  1  0  0  0  0
 14 17  1  0  0  0  0
 15 16  1  0  0  0  0
 17 18  1  0  0  0  0
 17 19  1  0  0  0  0
 19 20  4  0  0  0  0
 19 26  4  0  0  0  0
 20 21  4  0  0  0  0
 21 22  4  0  0  0  0
 22 23  4  0  0  0  0
 23 24  1  0  0  0  0
 23 26  4  0  0  0  0
 24 25  1  0  0  0  0
 26 27  1  0  0  0  0
 27 28  1  0  0  0  0
M  END
>  <Name_Molregno>
301027

>  <5-HT2A>
9.51

>  <5-HT2C>
7.89

>  <DOPAMINE D2>
5.89

$$$$
301194
  Marvin  02231216192D 0   1.00000     0.00000     0

 13 14  0  0  1  0  0  0  0  0999 V2000
   -0.0515   -1.2254    0.0000 Cl  0  0  0  0  0  0  0  0  0
    0.6630   -0.8129    0.0000 C   0  0  0  0  0  0  0  0  0
    1.3775   -1.2254    0.0000 C   0  0  0  0  0  0  0  0  0
    2.0919   -0.8129    0.0000 C   0  0  0  0  0  0  0  0  0
    2.0919    0.0121    0.0000 C   0  0  0  0  0  0  0  0  0
    2.7369    0.5264    0.0000 C   0  0  0  0  0  0  0  0  0
    3.5413    0.3429    0.0000 C   0  0  0  0  0  0  0  0  0
    3.8992   -0.4004    0.0000 N   0  0  0  0  0  0  0  0  0
    3.5413   -1.1437    0.0000 C   0  0  0  0  0  0  0  0  0
    2.7369   -1.3273    0.0000 C   0  0  0  0  0  0  0  0  0
    2.5534   -2.1316    0.0000 C   0  0  0  0  0  0  0  0  0
    1.3775    0.4246    0.0000 C   0  0  0  0  0  0  0  0  0
    0.6630    0.0121    0.0000 C   0  0  0  0  0  0  0  0  0
  1  2  1  0  0  0  0
  2  3  4  0  0  0  0
  2 13  4  0  0  0  0
  3  4  4  0  0  0  0
  4  5  4  0  0  0  0
  4 10  1  0  0  0  0
  5  6  1  0  0  0  0
  5 12  4  0  0  0  0
  6  7  1  0  0  0  0
  7  8  1  0  0  0  0
  8  9  1  0  0  0  0
  9 10  1  0  0  0  0
 10 11  1  0  0  0  0
 12 13  4  0  0  0  0
M  END
>  <Name_Molregno>
301194

>  <5-HT2A>
5.56

$$$$
303772
  Marvin  02231216192D 0   1.00000     0.00000     0

 32 36  0  0  0  0  0  0  0  0999 V2000
   -6.5979   -4.9561    0.0000 O   0  0  0  0  0  0  0  0  0
   -7.3124   -5.3686    0.0000 C   0  0  0  0  0  0  0  0  0
   -8.0268   -4.9561    0.0000 C   0  0  0  0  0  0  0  0  0
   -8.7413   -5.3686    0.0000 O   0  0  0  0  0  0  0  0  0
   -8.0268   -4.1311    0.0000 N   0  0  0  0  0  0  0  0  0
   -7.3124   -3.7186    0.0000 C   0  0  0  0  0  0  0  0  0
   -7.3124   -2.8936    0.0000 C   0  0  0  0  0  0  0  0  0
   -6.5979   -2.4811    0.0000 C   0  0  0  0  0  0  0  0  0
   -5.8834   -2.8936    0.0000 C   0  0  0  0  0  0  0  0  0
   -5.8834   -3.7186    0.0000 C   0  0  0  0  0  0  0  0  0
   -6.5979   -4.1311    0.0000 C   0  0  0  0  0  0  0  0  0
   -6.5979   -1.6561    0.0000 C   0  0  0  0  0  0  0  0  0
   -5.8834   -1.2436    0.0000 C   0  0  0  0  0  0  0  0  0
   -5.8834   -0.4186    0.0000 C   0  0  0  0  0  0  0  0  0
   -5.1690   -0.0061    0.0000 C   0  0  0  0  0  0  0  0  0
   -4.4545   -0.4186    0.0000 N   0  0  0  0  0  0  0  0  0
   -4.4545   -1.2436    0.0000 C   0  0  0  0  0  0  0  0  0
   -5.1690   -1.6561    0.0000 C   0  0  0  0  0  0  0  0  0
   -3.7400   -0.0061    0.0000 C   0  0  0  0  0  0  0  0  0
   -3.7400    0.8189    0.0000 C   0  0  0  0  0  0  0  0  0
   -3.0255    1.2314    0.0000 O   0  0  0  0  0  0  0  0  0
   -3.0255    2.0564    0.0000 C   0  0  0  0  0  0  0  0  0
   -2.3111    2.4689    0.0000 C   0  0  0  0  0  0  0  0  0
   -2.3111    3.2939    0.0000 C   0  0  0  0  0  0  0  0  0
   -1.5966    3.7064    0.0000 N   0  0  0  0  0  0  0  0  0
   -0.8821    3.2939    0.0000 C   0  0  0  0  0  0  0  0  0
   -0.8821    2.4689    0.0000 C   0  0  0  0  0  0  0  0  0
   -1.5966    2.0564    0.0000 C   0  0  0  0  0  0  0  0  0
   -0.1677    3.7064    0.0000 C   0  0  0  0  0  0  0  0  0
   -3.0255    3.7064    0.0000 C   0  0  0  0  0  0  0  0  0
   -3.7400    3.2939    0.0000 C   0  0  0  0  0  0  0  0  0
   -3.7400    2.4689    0.0000 C   0  0  0  0  0  0  0  0  0
  1  2  1  0  0  0  0
  1 11  1  0  0  0  0
  2  3  1  0  0  0  0
  3  4  2  0  0  0  0
  3  5  1  0  0  0  0
  5  6  1  0  0  0  0
  6  7  4  0  0  0  0
  6 11  4  0  0  0  0
  7  8  4  0  0  0  0
  8  9  4  0  0  0  0
  8 12  1  0  0  0  0
  9 10  4  0  0  0  0
 10 11  4  0  0  0  0
 12 13  1  0  0  0  0
 13 14  1  0  0  0  0
 13 18  1  0  0  0  0
 14 15  1  0  0  0  0
 15 16  1  0  0  0  0
 16 17  1  0  0  0  0
 16 19  1  0  0  0  0
 17 18  1  0  0  0  0
 19 20  1  0  0  0  0
 20 21  1  0  0  0  0
 21 22  1  0  0  0  0
 22 23  4  0  0  0  0
 22 32  4  0  0  0  0
 23 24  4  0  0  0  0
 23 28  4  0  0  0  0
 24 25  4  0  0  0  0
 24 30  4  0  0  0  0
 25 26  4  0  0  0  0
 26 27  4  0  0  0  0
 26 29  1  0  0  0  0
 27 28  4  0  0  0  0
 30 31  4  0  0  0  0
 31 32  4  0  0  0  0
M  END
>  <Name_Molregno>
303772

>  <5-HT1A>
8.92

>  <5-HT1B>
8

>  <5-HT1D>
8.8

>  <5-HT2A>
5.5

>  <5-HT2C>
5.1

>  <5-HT6>
5

>  <5-HT7>
6.7

>  <Beta-2>
6

>  <DOPAMINE D2>
5.9

>  <DOPAMINE D3>
6.2

>  <Serotonin transporter>
7.1

$$$$
309256
  Marvin  02231216192D 0   1.00000     0.00000     0

 26 29  0  0  1  0  0  0  0  0999 V2000
    3.9528   -4.3498    0.0000 S   0  0  0  0  0  0  0  0  0
    3.6979   -5.1344    0.0000 C   0  0  0  0  0  0  0  0  0
    2.8729   -5.1344    0.0000 C   0  0  0  0  0  0  0  0  0
    2.6180   -4.3498    0.0000 C   0  0  0  0  0  0  0  0  0
    3.2854   -3.8649    0.0000 C   0  0  0  0  0  0  0  0  0
    3.2854   -3.0399    0.0000 C   0  0  0  0  0  0  0  0  0
    2.5709   -2.6274    0.0000 C   0  0  0  0  0  0  0  0  0
    2.5709   -1.8024    0.0000 C   0  0  0  0  0  0  0  0  0
    3.2854   -1.3899    0.0000 C   0  0  0  0  0  0  0  0  0
    3.9999   -1.8024    0.0000 C   0  0  0  0  0  0  0  0  0
    3.9999   -2.6274    0.0000 C   0  0  0  0  0  0  0  0  0
    3.2854   -0.5649    0.0000 C   0  0  0  0  0  0  0  0  0
    2.5709   -0.1524    0.0000 O   0  0  0  0  0  0  0  0  0
    3.9999   -0.1524    0.0000 N   0  0  0  0  0  0  0  0  0
    3.9999    0.6726    0.0000 C   0  0  0  0  0  0  0  0  0
    3.3324    1.1576    0.0000 C   0  0  0  0  0  0  0  0  0
    3.5874    1.9422    0.0000 C   0  0  0  0  0  0  0  0  0
    4.4124    1.9422    0.0000 N   0  0  0  0  0  0  0  0  0
    4.6673    1.1576    0.0000 C   0  0  0  0  0  0  0  0  0
    4.8973    2.6096    0.0000 C   0  0  0  0  0  0  0  0  0
    5.7178    2.5234    0.0000 C   0  0  0  0  0  0  0  0  0
    6.2027    3.1908    0.0000 C   0  0  0  0  0  0  0  0  0
    7.0232    3.1046    0.0000 C   0  0  0  0  0  0  0  0  0
    7.3587    2.3509    0.0000 C   0  0  0  0  0  0  0  0  0
    6.8738    1.6835    0.0000 C   0  0  0  0  0  0  0  0  0
    6.0533    1.7697    0.0000 C   0  0  0  0  0  0  0  0  0
  1  2  4  0  0  0  0
  1  5  4  0  0  0  0
  2  3  4  0  0  0  0
  3  4  4  0  0  0  0
  4  5  4  0  0  0  0
  5  6  1  0  0  0  0
  6  7  4  0  0  0  0
  6 11  4  0  0  0  0
  7  8  4  0  0  0  0
  8  9  4  0  0  0  0
  9 10  4  0  0  0  0
  9 12  1  0  0  0  0
 10 11  4  0  0  0  0
 12 13  2  0  0  0  0
 12 14  1  0  0  0  0
 14 15  1  0  0  0  0
 15 16  1  0  0  0  0
 15 19  1  0  0  0  0
 16 17  1  0  0  0  0
 17 18  1  0  0  0  0
 18 19  1  0  0  0  0
 18 20  1  0  0  0  0
 20 21  1  0  0  0  0
 21 22  4  0  0  0  0
 21 26  4  0  0  0  0
 22 23  4  0  0  0  0
 23 24  4  0  0  0  0
 24 25  4  0  0  0  0
 25 26  4  0  0  0  0
M  END
>  <Name_Molregno>
309256

>  <5-HT2A>
8.74

>  <DOPAMINE D2>
5.98

>  <DOPAMINE D4>
8.3

$$$$
309452
  Marvin  02231216192D 0   1.00000     0.00000     0

 26 29  0  0  1  0  0  0  0  0999 V2000
    6.2249   -3.4249    0.0000 S   0  0  0  0  0  0  0  0  0
    5.9700   -4.2095    0.0000 C   0  0  0  0  0  0  0  0  0
    5.1450   -4.2095    0.0000 C   0  0  0  0  0  0  0  0  0
    4.8900   -3.4249    0.0000 C   0  0  0  0  0  0  0  0  0
    5.5575   -2.9400    0.0000 C   0  0  0  0  0  0  0  0  0
    5.5575   -2.1150    0.0000 C   0  0  0  0  0  0  0  0  0
    4.8430   -1.7025    0.0000 C   0  0  0  0  0  0  0  0  0
    4.8430   -0.8775    0.0000 C   0  0  0  0  0  0  0  0  0
    5.5575   -0.4650    0.0000 C   0  0  0  0  0  0  0  0  0
    6.2720   -0.8775    0.0000 C   0  0  0  0  0  0  0  0  0
    6.2720   -1.7025    0.0000 C   0  0  0  0  0  0  0  0  0
    4.1285   -0.4650    0.0000 C   0  0  0  0  0  0  0  0  0
    3.4141   -0.8775    0.0000 O   0  0  0  0  0  0  0  0  0
    4.1285    0.3600    0.0000 N   0  0  0  0  0  0  0  0  0
    3.4141    0.7725    0.0000 C   0  0  0  0  0  0  0  0  0
    2.6604    0.4370    0.0000 C   0  0  0  0  0  0  0  0  0
    2.1084    1.0501    0.0000 C   0  0  0  0  0  0  0  0  0
    2.5209    1.7645    0.0000 N   0  0  0  0  0  0  0  0  0
    3.3278    1.5930    0.0000 C   0  0  0  0  0  0  0  0  0
    2.1853    2.5182    0.0000 C   0  0  0  0  0  0  0  0  0
    2.6702    3.1856    0.0000 C   0  0  0  0  0  0  0  0  0
    2.3347    3.9393    0.0000 C   0  0  0  0  0  0  0  0  0
    2.8196    4.6068    0.0000 C   0  0  0  0  0  0  0  0  0
    3.6401    4.5205    0.0000 C   0  0  0  0  0  0  0  0  0
    3.9756    3.7668    0.0000 C   0  0  0  0  0  0  0  0  0
    3.4907    3.0994    0.0000 C   0  0  0  0  0  0  0  0  0
  1  2  4  0  0  0  0
  1  5  4  0  0  0  0
  2  3  4  0  0  0  0
  3  4  4  0  0  0  0
  4  5  4  0  0  0  0
  5  6  1  0  0  0  0
  6  7  4  0  0  0  0
  6 11  4  0  0  0  0
  7  8  4  0  0  0  0
  8  9  4  0  0  0  0
  8 12  1  0  0  0  0
  9 10  4  0  0  0  0
 10 11  4  0  0  0  0
 12 13  2  0  0  0  0
 12 14  1  0  0  0  0
 14 15  1  0  0  0  0
 15 16  1  0  0  0  0
 15 19  1  0  0  0  0
 16 17  1  0  0  0  0
 17 18  1  0  0  0  0
 18 19  1  0  0  0  0
 18 20  1  0  0  0  0
 20 21  1  0  0  0  0
 21 22  4  0  0  0  0
 21 26  4  0  0  0  0
 22 23  4  0  0  0  0
 23 24  4  0  0  0  0
 24 25  4  0  0  0  0
 25 26  4  0  0  0  0
M  END
>  <Name_Molregno>
309452

>  <5-HT2A>
6.34

>  <DOPAMINE D2>
7.22

>  <DOPAMINE D4>
8.82

$$$$
315432
  Marvin  02231216192D 0   1.00000     0.00000     0

 39 42  0  0  0  0  0  0  0  0999 V2000
    1.3459    1.7399    0.0000 O   0  0  0  0  0  0  0  0  0
    2.1709    1.7399    0.0000 C   0  0  0  0  0  0  0  0  0
    2.5834    1.0254    0.0000 N   0  0  0  0  0  0  0  0  0
    2.1709    0.3109    0.0000 C   0  0  0  0  0  0  0  0  0
    2.5834   -0.4036    0.0000 C   0  0  0  0  0  0  0  0  0
    3.4084   -0.4036    0.0000 C   0  0  0  0  0  0  0  0  0
    3.8209   -1.1180    0.0000 C   0  0  0  0  0  0  0  0  0
    3.4084   -1.8325    0.0000 C   0  0  0  0  0  0  0  0  0
    2.5834   -1.8325    0.0000 C   0  0  0  0  0  0  0  0  0
    2.1709   -1.1180    0.0000 C   0  0  0  0  0  0  0  0  0
    3.8209   -2.5470    0.0000 C   0  0  0  0  0  0  0  0  0
    4.6459   -2.5470    0.0000 C   0  0  0  0  0  0  0  0  0
    5.0584   -3.2614    0.0000 C   0  0  0  0  0  0  0  0  0
    4.6459   -3.9759    0.0000 C   0  0  0  0  0  0  0  0  0
    3.8209   -3.9759    0.0000 C   0  0  0  0  0  0  0  0  0
    3.4084   -3.2614    0.0000 C   0  0  0  0  0  0  0  0  0
    5.0584   -4.6904    0.0000 C   0  0  0  0  0  0  0  0  0
    4.6459   -5.4049    0.0000 N   0  0  0  0  0  0  0  0  0
    5.0584   -6.1193    0.0000 C   0  0  0  0  0  0  0  0  0
    4.6459   -6.8338    0.0000 C   0  0  0  0  0  0  0  0  0
    5.0584   -7.5483    0.0000 C   0  0  0  0  0  0  0  0  0
    5.8834   -7.5483    0.0000 C   0  0  0  0  0  0  0  0  0
    6.2959   -8.2627    0.0000 C   0  0  0  0  0  0  0  0  0
    5.8834   -8.9772    0.0000 C   0  0  0  0  0  0  0  0  0
    5.0584   -8.9772    0.0000 C   0  0  0  0  0  0  0  0  0
    4.6459   -8.2627    0.0000 C   0  0  0  0  0  0  0  0  0
    3.4084    1.0254    0.0000 C   0  0  0  0  0  0  0  0  0
    3.8209    0.3109    0.0000 C   0  0  0  0  0  0  0  0  0
    4.6459    0.3109    0.0000 N   0  0  0  0  0  0  0  0  0
    5.0584    1.0254    0.0000 C   0  0  0  0  0  0  0  0  0
    5.0584   -0.4036    0.0000 C   0  0  0  0  0  0  0  0  0
    2.5834    2.4543    0.0000 C   0  0  0  0  0  0  0  0  0
    2.1709    3.1688    0.0000 C   0  0  0  0  0  0  0  0  0
    2.5834    3.8833    0.0000 C   0  0  0  0  0  0  0  0  0
    2.1709    4.5977    0.0000 C   0  0  0  0  0  0  0  0  0
    2.5834    5.3122    0.0000 C   0  0  0  0  0  0  0  0  0
    3.4084    5.3122    0.0000 C   0  0  0  0  0  0  0  0  0
    3.8209    4.5977    0.0000 C   0  0  0  0  0  0  0  0  0
    3.4084    3.8833    0.0000 C   0  0  0  0  0  0  0  0  0
  1  2  2  0  0  0  0
  2  3  1  0  0  0  0
  2 32  1  0  0  0  0
  3  4  1  0  0  0  0
  3 27  1  0  0  0  0
  4  5  1  0  0  0  0
  5  6  4  0  0  0  0
  5 10  4  0  0  0  0
  6  7  4  0  0  0  0
  7  8  4  0  0  0  0
  8  9  4  0  0  0  0
  8 11  1  0  0  0  0
  9 10  4  0  0  0  0
 11 12  4  0  0  0  0
 11 16  4  0  0  0  0
 12 13  4  0  0  0  0
 13 14  4  0  0  0  0
 14 15  4  0  0  0  0
 14 17  1  0  0  0  0
 15 16  4  0  0  0  0
 17 18  1  0  0  0  0
 18 19  1  0  0  0  0
 19 20  1  0  0  0  0
 20 21  1  0  0  0  0
 21 22  4  0  0  0  0
 21 26  4  0  0  0  0
 22 23  4  0  0  0  0
 23 24  4  0  0  0  0
 24 25  4  0  0  0  0
 25 26  4  0  0  0  0
 27 28  1  0  0  0  0
 28 29  1  0  0  0  0
 29 30  1  0  0  0  0
 29 31  1  0  0  0  0
 32 33  2  0  0  0  0
 33 34  1  0  0  0  0
 34 35  4  0  0  0  0
 34 39  4  0  0  0  0
 35 36  4  0  0  0  0
 36 37  4  0  0  0  0
 37 38  4  0  0  0  0
 38 39  4  0  0  0  0
M  END
>  <Name_Molregno>
315432

>  <5-HT1A>
6.1

>  <5-HT1B>
6.2

>  <5-HT1D>
6.8

>  <5-HT1E>
5

>  <5-HT2A>
6.4

>  <5-HT2C>
6.2

>  <5-HT5>
7.6

>  <5-HT6>
5.1

>  <5-HT7>
6

>  <Alpha-1B>
6.7

>  <DOPAMINE D2>
6.1

>  <DOPAMINE D3>
6

>  <DOPAMINE D4>
5.9

$$$$
315433
  Marvin  02231216192D 0   1.00000     0.00000     0

 41 45  0  0  0  0  0  0  0  0999 V2000
    3.1883    0.1879    0.0000 O   0  0  0  0  0  0  0  0  0
    3.1883    1.0129    0.0000 C   0  0  0  0  0  0  0  0  0
    3.9028    1.4254    0.0000 N   0  0  0  0  0  0  0  0  0
    4.6173    1.0129    0.0000 C   0  0  0  0  0  0  0  0  0
    4.6173    0.1879    0.0000 C   0  0  0  0  0  0  0  0  0
    5.3317   -0.2246    0.0000 C   0  0  0  0  0  0  0  0  0
    5.3317   -1.0496    0.0000 C   0  0  0  0  0  0  0  0  0
    4.6173   -1.4621    0.0000 C   0  0  0  0  0  0  0  0  0
    3.9028   -1.0496    0.0000 C   0  0  0  0  0  0  0  0  0
    3.9028   -0.2246    0.0000 C   0  0  0  0  0  0  0  0  0
    4.6173   -2.2871    0.0000 C   0  0  0  0  0  0  0  0  0
    5.3317   -2.6996    0.0000 C   0  0  0  0  0  0  0  0  0
    5.3317   -3.5246    0.0000 C   0  0  0  0  0  0  0  0  0
    4.6173   -3.9371    0.0000 C   0  0  0  0  0  0  0  0  0
    3.9028   -3.5246    0.0000 C   0  0  0  0  0  0  0  0  0
    3.9028   -2.6996    0.0000 C   0  0  0  0  0  0  0  0  0
    4.6173   -4.7621    0.0000 C   0  0  0  0  0  0  0  0  0
    3.9028   -5.1746    0.0000 N   0  0  0  0  0  0  0  0  0
    3.9028   -5.9996    0.0000 C   0  0  0  0  0  0  0  0  0
    3.1883   -6.4121    0.0000 C   0  0  0  0  0  0  0  0  0
    3.1883   -7.2371    0.0000 C   0  0  0  0  0  0  0  0  0
    3.9028   -7.6496    0.0000 C   0  0  0  0  0  0  0  0  0
    3.9028   -8.4746    0.0000 C   0  0  0  0  0  0  0  0  0
    3.1883   -8.8871    0.0000 C   0  0  0  0  0  0  0  0  0
    2.4738   -8.4746    0.0000 C   0  0  0  0  0  0  0  0  0
    2.4738   -7.6496    0.0000 C   0  0  0  0  0  0  0  0  0
    3.9028    2.2504    0.0000 C   0  0  0  0  0  0  0  0  0
    4.6173    2.6629    0.0000 C   0  0  0  0  0  0  0  0  0
    5.3317    2.2504    0.0000 C   0  0  0  0  0  0  0  0  0
    6.0462    2.6629    0.0000 C   0  0  0  0  0  0  0  0  0
    6.0462    3.4879    0.0000 C   0  0  0  0  0  0  0  0  0
    5.3317    3.9004    0.0000 N   0  0  0  0  0  0  0  0  0
    4.6173    3.4879    0.0000 C   0  0  0  0  0  0  0  0  0
    2.4738    1.4254    0.0000 C   0  0  0  0  0  0  0  0  0
    1.7594    1.0129    0.0000 C   0  0  0  0  0  0  0  0  0
    1.0449    1.4254    0.0000 C   0  0  0  0  0  0  0  0  0
    0.3304    1.0129    0.0000 C   0  0  0  0  0  0  0  0  0
   -0.3840    1.4254    0.0000 C   0  0  0  0  0  0  0  0  0
   -0.3840    2.2504    0.0000 C   0  0  0  0  0  0  0  0  0
    0.3304    2.6629    0.0000 C   0  0  0  0  0  0  0  0  0
    1.0449    2.2504    0.0000 C   0  0  0  0  0  0  0  0  0
  1  2  2  0  0  0  0
  2  3  1  0  0  0  0
  2 34  1  0  0  0  0
  3  4  1  0  0  0  0
  3 27  1  0  0  0  0
  4  5  1  0  0  0  0
  5  6  4  0  0  0  0
  5 10  4  0  0  0  0
  6  7  4  0  0  0  0
  7  8  4  0  0  0  0
  8  9  4  0  0  0  0
  8 11  1  0  0  0  0
  9 10  4  0  0  0  0
 11 12  4  0  0  0  0
 11 16  4  0  0  0  0
 12 13  4  0  0  0  0
 13 14  4  0  0  0  0
 14 15  4  0  0  0  0
 14 17  1  0  0  0  0
 15 16  4  0  0  0  0
 17 18  1  0  0  0  0
 18 19  1  0  0  0  0
 19 20  1  0  0  0  0
 20 21  1  0  0  0  0
 21 22  4  0  0  0  0
 21 26  4  0  0  0  0
 22 23  4  0  0  0  0
 23 24  4  0  0  0  0
 24 25  4  0  0  0  0
 25 26  4  0  0  0  0
 27 28  1  0  0  0  0
 28 29  4  0  0  0  0
 28 33  4  0  0  0  0
 29 30  4  0  0  0  0
 30 31  4  0  0  0  0
 31 32  4  0  0  0  0
 32 33  4  0  0  0  0
 34 35  2  0  0  0  0
 35 36  1  0  0  0  0
 36 37  4  0  0  0  0
 36 41  4  0  0  0  0
 37 38  4  0  0  0  0
 38 39  4  0  0  0  0
 39 40  4  0  0  0  0
 40 41  4  0  0  0  0
M  END
>  <Name_Molregno>
315433

>  <5-HT1A>
6

>  <5-HT1B>
6.2

>  <5-HT1D>
5.9

>  <5-HT1E>
5

>  <5-HT2A>
6.1

>  <5-HT2C>
6

>  <5-HT5>
7.3

>  <5-HT6>
5.7

>  <5-HT7>
5.9

>  <Alpha-1B>
6.5

>  <DOPAMINE D2>
5.9

>  <DOPAMINE D3>
5.8

>  <DOPAMINE D4>
5.8

$$$$
315545
  Marvin  02231216192D 0   1.00000     0.00000     0

 38 41  0  0  0  0  0  0  0  0999 V2000
    8.3584    0.3824    0.0000 O   0  0  0  0  0  0  0  0  0
    7.8183   -0.2412    0.0000 C   0  0  0  0  0  0  0  0  0
    7.0082   -0.0853    0.0000 N   0  0  0  0  0  0  0  0  0
    6.7381    0.6942    0.0000 C   0  0  0  0  0  0  0  0  0
    5.9280    0.8501    0.0000 C   0  0  0  0  0  0  0  0  0
    5.3879    0.2265    0.0000 C   0  0  0  0  0  0  0  0  0
    4.5778    0.3824    0.0000 C   0  0  0  0  0  0  0  0  0
    4.3077    1.1620    0.0000 C   0  0  0  0  0  0  0  0  0
    4.8478    1.7856    0.0000 C   0  0  0  0  0  0  0  0  0
    5.6579    1.6297    0.0000 C   0  0  0  0  0  0  0  0  0
    3.4976    1.3179    0.0000 C   0  0  0  0  0  0  0  0  0
    2.9575    0.6942    0.0000 C   0  0  0  0  0  0  0  0  0
    2.1474    0.8501    0.0000 C   0  0  0  0  0  0  0  0  0
    1.8773    1.6297    0.0000 C   0  0  0  0  0  0  0  0  0
    2.4174    2.2533    0.0000 C   0  0  0  0  0  0  0  0  0
    3.2275    2.0974    0.0000 C   0  0  0  0  0  0  0  0  0
    1.0672    1.7856    0.0000 C   0  0  0  0  0  0  0  0  0
    0.7971    2.5652    0.0000 N   0  0  0  0  0  0  0  0  0
   -0.0130    2.7211    0.0000 C   0  0  0  0  0  0  0  0  0
   -0.2830    3.5006    0.0000 C   0  0  0  0  0  0  0  0  0
   -1.0932    3.6565    0.0000 C   0  0  0  0  0  0  0  0  0
   -1.6333    3.0329    0.0000 C   0  0  0  0  0  0  0  0  0
   -2.4434    3.1888    0.0000 C   0  0  0  0  0  0  0  0  0
   -2.7135    3.9683    0.0000 C   0  0  0  0  0  0  0  0  0
   -2.1734    4.5920    0.0000 C   0  0  0  0  0  0  0  0  0
   -1.3632    4.4361    0.0000 C   0  0  0  0  0  0  0  0  0
    6.4681   -0.7090    0.0000 C   0  0  0  0  0  0  0  0  0
    5.6579   -0.5531    0.0000 C   0  0  0  0  0  0  0  0  0
    5.1178   -1.1767    0.0000 N   0  0  0  0  0  0  0  0  0
    5.3879   -1.9562    0.0000 C   0  0  0  0  0  0  0  0  0
    4.3077   -1.0208    0.0000 C   0  0  0  0  0  0  0  0  0
    8.0883   -1.0208    0.0000 C   0  0  0  0  0  0  0  0  0
    8.8985   -1.1767    0.0000 C   0  0  0  0  0  0  0  0  0
    9.1685   -1.9562    0.0000 C   0  0  0  0  0  0  0  0  0
    9.9579   -2.1960    0.0000 C   0  0  0  0  0  0  0  0  0
    9.9738   -3.0208    0.0000 C   0  0  0  0  0  0  0  0  0
    9.1943   -3.2909    0.0000 C   0  0  0  0  0  0  0  0  0
    8.6966   -2.6329    0.0000 C   0  0  0  0  0  0  0  0  0
  1  2  2  0  0  0  0
  2  3  1  0  0  0  0
  2 32  1  0  0  0  0
  3  4  1  0  0  0  0
  3 27  1  0  0  0  0
  4  5  1  0  0  0  0
  5  6  4  0  0  0  0
  5 10  4  0  0  0  0
  6  7  4  0  0  0  0
  7  8  4  0  0  0  0
  8  9  4  0  0  0  0
  8 11  1  0  0  0  0
  9 10  4  0  0  0  0
 11 12  4  0  0  0  0
 11 16  4  0  0  0  0
 12 13  4  0  0  0  0
 13 14  4  0  0  0  0
 14 15  4  0  0  0  0
 14 17  1  0  0  0  0
 15 16  4  0  0  0  0
 17 18  1  0  0  0  0
 18 19  1  0  0  0  0
 19 20  1  0  0  0  0
 20 21  1  0  0  0  0
 21 22  4  0  0  0  0
 21 26  4  0  0  0  0
 22 23  4  0  0  0  0
 23 24  4  0  0  0  0
 24 25  4  0  0  0  0
 25 26  4  0  0  0  0
 27 28  1  0  0  0  0
 28 29  1  0  0  0  0
 29 30  1  0  0  0  0
 29 31  1  0  0  0  0
 32 33  1  0  0  0  0
 33 34  1  0  0  0  0
 34 35  1  0  0  0  0
 34 38  1  0  0  0  0
 35 36  1  0  0  0  0
 36 37  1  0  0  0  0
 37 38  1  0  0  0  0
M  END
>  <Name_Molregno>
315545

>  <5-HT1A>
6.3

>  <5-HT1B>
6.5

>  <5-HT1D>
6.4

>  <5-HT1E>
5

>  <5-HT2A>
6.1

>  <5-HT2C>
6.4

>  <5-HT5>
8.2

>  <5-HT6>
5.4

>  <5-HT7>
5.4

>  <Alpha-1B>
6.5

>  <DOPAMINE D2>
5.9

>  <DOPAMINE D3>
6.2

>  <DOPAMINE D4>
6.1

>  <Serotonin transporter>
7.6

$$$$
315640
  Marvin  02231216192D 0   1.00000     0.00000     0

 16 18  0  0  1  0  0  0  0  0999 V2000
    0.0225   -0.0419    0.0000 N   0  0  0  0  0  0  0  0  0
    0.2774    0.7427    0.0000 C   0  0  0  0  0  0  0  0  0
   -0.3900    1.2276    0.0000 C   0  0  0  0  0  0  0  0  0
   -1.0575    0.7427    0.0000 C   0  0  0  0  0  0  0  0  0
   -0.8025   -0.0419    0.0000 C   0  0  0  0  0  0  0  0  0
   -1.3546   -0.6550    0.0000 C   0  0  0  0  0  0  0  0  0
   -2.1615   -0.4835    0.0000 C   0  0  0  0  0  0  0  0  0
   -2.4165    0.3011    0.0000 C   0  0  0  0  0  0  0  0  0
   -1.8644    0.9142    0.0000 C   0  0  0  0  0  0  0  0  0
   -2.7136   -1.0966    0.0000 C   0  0  0  0  0  0  0  0  0
   -3.2656   -1.7097    0.0000 N   0  0  0  0  0  0  0  0  0
    1.0844    0.9142    0.0000 C   0  0  0  0  0  0  0  0  0
    1.6364    0.3011    0.0000 N   0  0  0  0  0  0  0  0  0
    1.3815   -0.4835    0.0000 C   0  0  0  0  0  0  0  0  0
    0.5745   -0.6550    0.0000 C   0  0  0  0  0  0  0  0  0
    0.3196   -1.4396    0.0000 C   0  0  0  0  0  0  0  0  0
  1  2  1  0  0  0  0
  1  5  1  0  0  0  0
  1 15  1  0  0  0  0
  2  3  1  0  0  0  0
  2 12  1  0  0  0  0
  3  4  1  0  0  0  0
  4  5  4  0  0  0  0
  4  9  4  0  0  0  0
  5  6  4  0  0  0  0
  6  7  4  0  0  0  0
  7  8  4  0  0  0  0
  7 10  1  0  0  0  0
  8  9  4  0  0  0  0
 10 11  3  0  0  0  0
 12 13  1  0  0  0  0
 13 14  1  0  0  0  0
 14 15  1  0  0  0  0
 15 16  1  0  0  0  0
M  END
>  <Name_Molregno>
315640

>  <5-HT2A>
6.96

>  <5-HT2C>
8.42

$$$$
315641
  Marvin  02231216192D 0   1.00000     0.00000     0

 18 20  0  0  1  0  0  0  0  0999 V2000
   -5.5517   -2.2374    0.0000 O   0  0  0  0  0  0  0  0  0
   -4.9996   -1.6243    0.0000 C   0  0  0  0  0  0  0  0  0
   -4.1926   -1.7958    0.0000 N   0  0  0  0  0  0  0  0  0
   -3.6406   -1.1827    0.0000 C   0  0  0  0  0  0  0  0  0
   -2.8336   -1.3543    0.0000 C   0  0  0  0  0  0  0  0  0
   -2.2816   -0.7412    0.0000 C   0  0  0  0  0  0  0  0  0
   -1.4566   -0.7412    0.0000 N   0  0  0  0  0  0  0  0  0
   -1.2017    0.0435    0.0000 C   0  0  0  0  0  0  0  0  0
   -1.8691    0.5284    0.0000 C   0  0  0  0  0  0  0  0  0
   -2.5365    0.0435    0.0000 C   0  0  0  0  0  0  0  0  0
   -3.3435    0.2150    0.0000 C   0  0  0  0  0  0  0  0  0
   -3.8956   -0.3981    0.0000 C   0  0  0  0  0  0  0  0  0
   -0.3947    0.2150    0.0000 C   0  0  0  0  0  0  0  0  0
    0.1573   -0.3981    0.0000 N   0  0  0  0  0  0  0  0  0
   -0.0976   -1.1827    0.0000 C   0  0  0  0  0  0  0  0  0
   -0.9046   -1.3543    0.0000 C   0  0  0  0  0  0  0  0  0
   -1.1595   -2.1389    0.0000 C   0  0  0  0  0  0  0  0  0
   -5.2546   -0.8397    0.0000 C   0  0  0  0  0  0  0  0  0
  1  2  2  0  0  0  0
  2  3  1  0  0  0  0
  2 18  1  0  0  0  0
  3  4  1  0  0  0  0
  4  5  4  0  0  0  0
  4 12  4  0  0  0  0
  5  6  4  0  0  0  0
  6  7  1  0  0  0  0
  6 10  4  0  0  0  0
  7  8  1  0  0  0  0
  7 16  1  0  0  0  0
  8  9  1  0  0  0  0
  8 13  1  0  0  0  0
  9 10  1  0  0  0  0
 10 11  4  0  0  0  0
 11 12  4  0  0  0  0
 13 14  1  0  0  0  0
 14 15  1  0  0  0  0
 15 16  1  0  0  0  0
 16 17  1  0  0  0  0
M  END
>  <Name_Molregno>
315641

>  <5-HT2A>
5.96

>  <5-HT2C>
6.17

$$$$
315680
  Marvin  02231216192D 0   1.00000     0.00000     0

 16 18  0  0  1  0  0  0  0  0999 V2000
   -0.0195    0.0476    0.0000 N   0  0  0  0  0  0  0  0  0
    0.8055    0.0476    0.0000 C   0  0  0  0  0  0  0  0  0
    1.0604   -0.7370    0.0000 C   0  0  0  0  0  0  0  0  0
    0.3930   -1.2220    0.0000 C   0  0  0  0  0  0  0  0  0
   -0.2745   -0.7370    0.0000 C   0  0  0  0  0  0  0  0  0
   -1.0814   -0.9086    0.0000 C   0  0  0  0  0  0  0  0  0
   -1.6335   -0.2955    0.0000 N   0  0  0  0  0  0  0  0  0
   -1.3785    0.4892    0.0000 C   0  0  0  0  0  0  0  0  0
   -0.5716    0.6607    0.0000 C   0  0  0  0  0  0  0  0  0
   -0.3166    1.4453    0.0000 C   0  0  0  0  0  0  0  0  0
    1.8674   -0.9086    0.0000 C   0  0  0  0  0  0  0  0  0
    2.4194   -0.2955    0.0000 C   0  0  0  0  0  0  0  0  0
    2.1645    0.4892    0.0000 C   0  0  0  0  0  0  0  0  0
    2.7165    1.1022    0.0000 C   0  0  0  0  0  0  0  0  0
    1.3575    0.6607    0.0000 C   0  0  0  0  0  0  0  0  0
    1.1026    1.4453    0.0000 C   0  0  0  0  0  0  0  0  0
  1  2  1  0  0  0  0
  1  5  1  0  0  0  0
  1  9  1  0  0  0  0
  2  3  4  0  0  0  0
  2 15  4  0  0  0  0
  3  4  1  0  0  0  0
  3 11  4  0  0  0  0
  4  5  1  0  0  0  0
  5  6  1  0  0  0  0
  6  7  1  0  0  0  0
  7  8  1  0  0  0  0
  8  9  1  0  0  0  0
  9 10  1  0  0  0  0
 11 12  4  0  0  0  0
 12 13  4  0  0  0  0
 13 14  1  0  0  0  0
 13 15  4  0  0  0  0
 15 16  1  0  0  0  0
M  END
>  <Name_Molregno>
315680

>  <5-HT2A>
7.23

>  <5-HT2C>
8.4

$$$$
315681
  Marvin  02231216192D 0   1.00000     0.00000     0

 16 18  0  0  1  0  0  0  0  0999 V2000
    4.5029    0.7239    0.0000 Cl  0  0  0  0  0  0  0  0  0
    3.9509    0.1108    0.0000 C   0  0  0  0  0  0  0  0  0
    4.2059   -0.6738    0.0000 C   0  0  0  0  0  0  0  0  0
    3.6538   -1.2869    0.0000 C   0  0  0  0  0  0  0  0  0
    2.8468   -1.1154    0.0000 C   0  0  0  0  0  0  0  0  0
    2.5919   -0.3308    0.0000 C   0  0  0  0  0  0  0  0  0
    1.7669   -0.3308    0.0000 N   0  0  0  0  0  0  0  0  0
    1.5120   -1.1154    0.0000 C   0  0  0  0  0  0  0  0  0
    2.1794   -1.6003    0.0000 C   0  0  0  0  0  0  0  0  0
    0.7050   -1.2869    0.0000 C   0  0  0  0  0  0  0  0  0
    0.1530   -0.6738    0.0000 N   0  0  0  0  0  0  0  0  0
    0.4079    0.1108    0.0000 C   0  0  0  0  0  0  0  0  0
    1.2149    0.2823    0.0000 C   0  0  0  0  0  0  0  0  0
    1.4698    1.0670    0.0000 C   0  0  0  0  0  0  0  0  0
    3.1439    0.2823    0.0000 C   0  0  0  0  0  0  0  0  0
    2.8890    1.0670    0.0000 C   0  0  0  0  0  0  0  0  0
  1  2  1  0  0  0  0
  2  3  4  0  0  0  0
  2 15  4  0  0  0  0
  3  4  4  0  0  0  0
  4  5  4  0  0  0  0
  5  6  4  0  0  0  0
  5  9  1  0  0  0  0
  6  7  1  0  0  0  0
  6 15  4  0  0  0  0
  7  8  1  0  0  0  0
  7 13  1  0  0  0  0
  8  9  1  0  0  0  0
  8 10  1  0  0  0  0
 10 11  1  0  0  0  0
 11 12  1  0  0  0  0
 12 13  1  0  0  0  0
 13 14  1  0  0  0  0
 15 16  1  0  0  0  0
M  END
>  <Name_Molregno>
315681

>  <5-HT2A>
8.08

>  <5-HT2C>
9.12

$$$$
315725
  Marvin  02231216192D 0   1.00000     0.00000     0

 14 16  0  0  1  0  0  0  0  0999 V2000
    0.0443   -0.3412    0.0000 N   0  0  0  0  0  0  0  0  0
    0.2992    0.4434    0.0000 C   0  0  0  0  0  0  0  0  0
   -0.3682    0.9283    0.0000 C   0  0  0  0  0  0  0  0  0
   -1.0357    0.4434    0.0000 C   0  0  0  0  0  0  0  0  0
   -0.7807   -0.3412    0.0000 C   0  0  0  0  0  0  0  0  0
   -1.3328   -0.9543    0.0000 C   0  0  0  0  0  0  0  0  0
   -2.1398   -0.7828    0.0000 C   0  0  0  0  0  0  0  0  0
   -2.3947    0.0018    0.0000 C   0  0  0  0  0  0  0  0  0
   -1.8427    0.6149    0.0000 C   0  0  0  0  0  0  0  0  0
    1.1062    0.6149    0.0000 C   0  0  0  0  0  0  0  0  0
    1.6582    0.0018    0.0000 N   0  0  0  0  0  0  0  0  0
    1.4033   -0.7828    0.0000 C   0  0  0  0  0  0  0  0  0
    0.5963   -0.9543    0.0000 C   0  0  0  0  0  0  0  0  0
    0.3413   -1.7390    0.0000 C   0  0  0  0  0  0  0  0  0
  1  2  1  0  0  0  0
  1  5  1  0  0  0  0
  1 13  1  0  0  0  0
  2  3  1  0  0  0  0
  2 10  1  0  0  0  0
  3  4  1  0  0  0  0
  4  5  4  0  0  0  0
  4  9  4  0  0  0  0
  5  6  4  0  0  0  0
  6  7  4  0  0  0  0
  7  8  4  0  0  0  0
  8  9  4  0  0  0  0
 10 11  1  0  0  0  0
 11 12  1  0  0  0  0
 12 13  1  0  0  0  0
 13 14  1  0  0  0  0
M  END
>  <Name_Molregno>
315725

>  <5-HT2A>
7.39

>  <5-HT2C>
7.74

$$$$
315778
  Marvin  02231216192D 0   1.00000     0.00000     0

 15 17  0  0  1  0  0  0  0  0999 V2000
    4.4204    0.7152    0.0000 Cl  0  0  0  0  0  0  0  0  0
    3.8684    0.1021    0.0000 C   0  0  0  0  0  0  0  0  0
    4.1233   -0.6825    0.0000 C   0  0  0  0  0  0  0  0  0
    3.5713   -1.2956    0.0000 C   0  0  0  0  0  0  0  0  0
    2.7643   -1.1241    0.0000 C   0  0  0  0  0  0  0  0  0
    2.5094   -0.3395    0.0000 C   0  0  0  0  0  0  0  0  0
    1.6844   -0.3395    0.0000 N   0  0  0  0  0  0  0  0  0
    1.4295   -1.1241    0.0000 C   0  0  0  0  0  0  0  0  0
    2.0969   -1.6090    0.0000 C   0  0  0  0  0  0  0  0  0
    0.6225   -1.2956    0.0000 C   0  0  0  0  0  0  0  0  0
    0.0705   -0.6825    0.0000 N   0  0  0  0  0  0  0  0  0
    0.3254    0.1021    0.0000 C   0  0  0  0  0  0  0  0  0
    1.1324    0.2736    0.0000 C   0  0  0  0  0  0  0  0  0
    3.0614    0.2736    0.0000 C   0  0  0  0  0  0  0  0  0
    2.8065    1.0582    0.0000 C   0  0  0  0  0  0  0  0  0
  1  2  1  0  0  0  0
  2  3  4  0  0  0  0
  2 14  4  0  0  0  0
  3  4  4  0  0  0  0
  4  5  4  0  0  0  0
  5  6  4  0  0  0  0
  5  9  1  0  0  0  0
  6  7  1  0  0  0  0
  6 14  4  0  0  0  0
  7  8  1  0  0  0  0
  7 13  1  0  0  0  0
  8  9  1  0  0  0  0
  8 10  1  0  0  0  0
 10 11  1  0  0  0  0
 11 12  1  0  0  0  0
 12 13  1  0  0  0  0
 14 15  1  0  0  0  0
M  END
>  <Name_Molregno>
315778

>  <5-HT2A>
7.75

>  <5-HT2C>
8.15

$$$$
315789
  Marvin  02231216192D 0   1.00000     0.00000     0

 15 17  0  0  1  0  0  0  0  0999 V2000
    0.0357   -0.2171    0.0000 N   0  0  0  0  0  0  0  0  0
    0.2906    0.5675    0.0000 C   0  0  0  0  0  0  0  0  0
   -0.3768    1.0525    0.0000 C   0  0  0  0  0  0  0  0  0
   -1.0443    0.5675    0.0000 C   0  0  0  0  0  0  0  0  0
   -0.7893   -0.2171    0.0000 C   0  0  0  0  0  0  0  0  0
   -1.3414   -0.8302    0.0000 C   0  0  0  0  0  0  0  0  0
   -2.1483   -0.6586    0.0000 C   0  0  0  0  0  0  0  0  0
   -2.4033    0.1260    0.0000 C   0  0  0  0  0  0  0  0  0
   -1.8512    0.7391    0.0000 C   0  0  0  0  0  0  0  0  0
   -2.7004   -1.2717    0.0000 C   0  0  0  0  0  0  0  0  0
    1.0976    0.7391    0.0000 C   0  0  0  0  0  0  0  0  0
    1.6496    0.1260    0.0000 N   0  0  0  0  0  0  0  0  0
    1.3947   -0.6586    0.0000 C   0  0  0  0  0  0  0  0  0
    0.5877   -0.8302    0.0000 C   0  0  0  0  0  0  0  0  0
    0.3328   -1.6148    0.0000 C   0  0  0  0  0  0  0  0  0
  1  2  1  0  0  0  0
  1  5  1  0  0  0  0
  1 14  1  0  0  0  0
  2  3  1  0  0  0  0
  2 11  1  0  0  0  0
  3  4  1  0  0  0  0
  4  5  4  0  0  0  0
  4  9  4  0  0  0  0
  5  6  4  0  0  0  0
  6  7  4  0  0  0  0
  7  8  4  0  0  0  0
  7 10  1  0  0  0  0
  8  9  4  0  0  0  0
 11 12  1  0  0  0  0
 12 13  1  0  0  0  0
 13 14  1  0  0  0  0
 14 15  1  0  0  0  0
M  END
>  <Name_Molregno>
315789

>  <5-HT2A>
7.66

>  <5-HT2C>
8.89

$$$$
315830
  Marvin  02231216192D 0   1.00000     0.00000     0

 18 20  0  0  1  0  0  0  0  0999 V2000
   -3.9180   -2.4826    0.0000 F   0  0  0  0  0  0  0  0  0
   -3.3659   -1.8695    0.0000 C   0  0  0  0  0  0  0  0  0
   -2.7528   -2.4216    0.0000 F   0  0  0  0  0  0  0  0  0
   -3.9790   -1.3175    0.0000 F   0  0  0  0  0  0  0  0  0
   -2.8139   -1.2564    0.0000 C   0  0  0  0  0  0  0  0  0
   -2.0069   -1.4280    0.0000 C   0  0  0  0  0  0  0  0  0
   -1.4549   -0.8149    0.0000 C   0  0  0  0  0  0  0  0  0
   -0.6299   -0.8149    0.0000 N   0  0  0  0  0  0  0  0  0
   -0.3749   -0.0303    0.0000 C   0  0  0  0  0  0  0  0  0
   -1.0424    0.4547    0.0000 C   0  0  0  0  0  0  0  0  0
   -1.7098   -0.0303    0.0000 C   0  0  0  0  0  0  0  0  0
   -2.5168    0.1413    0.0000 C   0  0  0  0  0  0  0  0  0
   -3.0688   -0.4718    0.0000 C   0  0  0  0  0  0  0  0  0
    0.4320    0.1413    0.0000 C   0  0  0  0  0  0  0  0  0
    0.9841   -0.4718    0.0000 N   0  0  0  0  0  0  0  0  0
    0.7291   -1.2564    0.0000 C   0  0  0  0  0  0  0  0  0
   -0.0778   -1.4280    0.0000 C   0  0  0  0  0  0  0  0  0
   -0.3328   -2.2126    0.0000 C   0  0  0  0  0  0  0  0  0
  1  2  1  0  0  0  0
  2  3  1  0  0  0  0
  2  4  1  0  0  0  0
  2  5  1  0  0  0  0
  5  6  4  0  0  0  0
  5 13  4  0  0  0  0
  6  7  4  0  0  0  0
  7  8  1  0  0  0  0
  7 11  4  0  0  0  0
  8  9  1  0  0  0  0
  8 17  1  0  0  0  0
  9 10  1  0  0  0  0
  9 14  1  0  0  0  0
 10 11  1  0  0  0  0
 11 12  4  0  0  0  0
 12 13  4  0  0  0  0
 14 15  1  0  0  0  0
 15 16  1  0  0  0  0
 16 17  1  0  0  0  0
 17 18  1  0  0  0  0
M  END
>  <Name_Molregno>
315830

>  <5-HT2A>
8.12

>  <5-HT2C>
8.85

$$$$
315853
  Marvin  02231216192D 0   1.00000     0.00000     0

 15 17  0  0  1  0  0  0  0  0999 V2000
   -0.0267    0.1529    0.0000 N   0  0  0  0  0  0  0  0  0
    0.7983    0.1529    0.0000 C   0  0  0  0  0  0  0  0  0
    1.0533   -0.6318    0.0000 C   0  0  0  0  0  0  0  0  0
    0.3858   -1.1167    0.0000 C   0  0  0  0  0  0  0  0  0
   -0.2816   -0.6318    0.0000 C   0  0  0  0  0  0  0  0  0
   -1.0886   -0.8033    0.0000 C   0  0  0  0  0  0  0  0  0
   -1.6406   -0.1902    0.0000 N   0  0  0  0  0  0  0  0  0
   -1.3857    0.5944    0.0000 C   0  0  0  0  0  0  0  0  0
   -0.5787    0.7659    0.0000 C   0  0  0  0  0  0  0  0  0
   -0.3238    1.5506    0.0000 C   0  0  0  0  0  0  0  0  0
    1.8602   -0.8033    0.0000 C   0  0  0  0  0  0  0  0  0
    2.4123   -0.1902    0.0000 C   0  0  0  0  0  0  0  0  0
    2.1573    0.5944    0.0000 C   0  0  0  0  0  0  0  0  0
    1.3504    0.7659    0.0000 C   0  0  0  0  0  0  0  0  0
    1.0954    1.5506    0.0000 C   0  0  0  0  0  0  0  0  0
  1  2  1  0  0  0  0
  1  5  1  0  0  0  0
  1  9  1  0  0  0  0
  2  3  4  0  0  0  0
  2 14  4  0  0  0  0
  3  4  1  0  0  0  0
  3 11  4  0  0  0  0
  4  5  1  0  0  0  0
  5  6  1  0  0  0  0
  6  7  1  0  0  0  0
  7  8  1  0  0  0  0
  8  9  1  0  0  0  0
  9 10  1  0  0  0  0
 11 12  4  0  0  0  0
 12 13  4  0  0  0  0
 13 14  4  0  0  0  0
 14 15  1  0  0  0  0
M  END
>  <Name_Molregno>
315853

>  <5-HT2A>
7.37

>  <5-HT2C>
8.59

$$$$
315926
  Marvin  02231216192D 0   1.00000     0.00000     0

 14 16  0  0  1  0  0  0  0  0999 V2000
    0.2061   -1.7016    0.0000 Cl  0  0  0  0  0  0  0  0  0
    0.7581   -1.0885    0.0000 C   0  0  0  0  0  0  0  0  0
    1.5651   -1.2601    0.0000 C   0  0  0  0  0  0  0  0  0
    2.1171   -0.6470    0.0000 C   0  0  0  0  0  0  0  0  0
    2.9421   -0.6470    0.0000 N   0  0  0  0  0  0  0  0  0
    3.1971    0.1377    0.0000 C   0  0  0  0  0  0  0  0  0
    2.5296    0.6226    0.0000 C   0  0  0  0  0  0  0  0  0
    1.8622    0.1377    0.0000 C   0  0  0  0  0  0  0  0  0
    1.0552    0.3092    0.0000 C   0  0  0  0  0  0  0  0  0
    0.5032   -0.3039    0.0000 C   0  0  0  0  0  0  0  0  0
    4.0040    0.3092    0.0000 C   0  0  0  0  0  0  0  0  0
    4.5561   -0.3039    0.0000 N   0  0  0  0  0  0  0  0  0
    4.3011   -1.0885    0.0000 C   0  0  0  0  0  0  0  0  0
    3.4941   -1.2601    0.0000 C   0  0  0  0  0  0  0  0  0
  1  2  1  0  0  0  0
  2  3  4  0  0  0  0
  2 10  4  0  0  0  0
  3  4  4  0  0  0  0
  4  5  1  0  0  0  0
  4  8  4  0  0  0  0
  5  6  1  0  0  0  0
  5 14  1  0  0  0  0
  6  7  1  0  0  0  0
  6 11  1  0  0  0  0
  7  8  1  0  0  0  0
  8  9  4  0  0  0  0
  9 10  4  0  0  0  0
 11 12  1  0  0  0  0
 12 13  1  0  0  0  0
 13 14  1  0  0  0  0
M  END
>  <Name_Molregno>
315926

>  <5-HT2A>
7.49

>  <5-HT2C>
7.51

$$$$
316035
  Marvin  02231216192D 0   1.00000     0.00000     0

 16 18  0  0  1  0  0  0  0  0999 V2000
   -0.3155   -2.3024    0.0000 O   0  0  0  0  0  0  0  0  0
    0.4915   -2.4739    0.0000 C   0  0  0  0  0  0  0  0  0
    1.0436   -1.8608    0.0000 C   0  0  0  0  0  0  0  0  0
    1.8505   -2.0323    0.0000 C   0  0  0  0  0  0  0  0  0
    2.4026   -1.4192    0.0000 C   0  0  0  0  0  0  0  0  0
    3.2276   -1.4192    0.0000 N   0  0  0  0  0  0  0  0  0
    3.4825   -0.6346    0.0000 C   0  0  0  0  0  0  0  0  0
    2.8151   -0.1497    0.0000 C   0  0  0  0  0  0  0  0  0
    2.1476   -0.6346    0.0000 C   0  0  0  0  0  0  0  0  0
    1.3406   -0.4631    0.0000 C   0  0  0  0  0  0  0  0  0
    0.7886   -1.0762    0.0000 C   0  0  0  0  0  0  0  0  0
    4.2895   -0.4631    0.0000 C   0  0  0  0  0  0  0  0  0
    4.8415   -1.0762    0.0000 N   0  0  0  0  0  0  0  0  0
    4.5866   -1.8608    0.0000 C   0  0  0  0  0  0  0  0  0
    3.7796   -2.0323    0.0000 C   0  0  0  0  0  0  0  0  0
    3.5246   -2.8169    0.0000 C   0  0  0  0  0  0  0  0  0
  1  2  1  0  0  0  0
  2  3  1  0  0  0  0
  3  4  4  0  0  0  0
  3 11  4  0  0  0  0
  4  5  4  0  0  0  0
  5  6  1  0  0  0  0
  5  9  4  0  0  0  0
  6  7  1  0  0  0  0
  6 15  1  0  0  0  0
  7  8  1  0  0  0  0
  7 12  1  0  0  0  0
  8  9  1  0  0  0  0
  9 10  4  0  0  0  0
 10 11  4  0  0  0  0
 12 13  1  0  0  0  0
 13 14  1  0  0  0  0
 14 15  1  0  0  0  0
 15 16  1  0  0  0  0
M  END
>  <Name_Molregno>
316035

>  <5-HT2A>
6.54

>  <5-HT2C>
7.47

$$$$
320346
  Marvin  02231216192D 0   1.00000     0.00000     0

 25 28  0  0  1  0  0  0  0  0999 V2000
   -0.3965   -3.1617    0.0000 O   0  0  0  0  0  0  0  0  0
    0.3175   -3.5751    0.0000 C   0  0  0  0  0  0  0  0  0
    1.0325   -3.1634    0.0000 N   0  0  0  0  0  0  0  0  0
    1.0334   -2.3384    0.0000 C   0  0  0  0  0  0  0  0  0
    1.7484   -1.9268    0.0000 C   0  0  0  0  0  0  0  0  0
    1.7494   -1.1018    0.0000 C   0  0  0  0  0  0  0  0  0
    1.0354   -0.6884    0.0000 C   0  0  0  0  0  0  0  0  0
    0.3205   -1.1001    0.0000 N   0  0  0  0  0  0  0  0  0
    0.3195   -1.9251    0.0000 C   0  0  0  0  0  0  0  0  0
   -0.3935   -0.6867    0.0000 C   0  0  0  0  0  0  0  0  0
    1.0369    0.1357    0.0000 C   0  0  0  0  0  0  0  0  0
    1.7494    0.5482    0.0000 C   0  0  0  0  0  0  0  0  0
    2.4619    0.1357    0.0000 C   0  0  0  0  0  0  0  0  0
    2.4619   -0.6893    0.0000 C   0  0  0  0  0  0  0  0  0
    3.1798   -1.1018    0.0000 C   0  0  0  0  0  0  0  0  0
    3.8923   -0.6893    0.0000 C   0  0  0  0  0  0  0  0  0
    3.8923    0.1357    0.0000 C   0  0  0  0  0  0  0  0  0
    3.1798    0.5482    0.0000 C   0  0  0  0  0  0  0  0  0
    2.8744    1.4054    0.0000 N   0  0  0  0  0  0  0  0  0
    2.0494    1.4054    0.0000 C   0  0  0  0  0  0  0  0  0
    0.3165   -4.4001    0.0000 N   0  0  0  0  0  0  0  0  0
   -0.3985   -4.8117    0.0000 C   0  0  0  0  0  0  0  0  0
   -0.3994   -5.6367    0.0000 C   0  0  0  0  0  0  0  0  0
    1.0305   -4.8134    0.0000 C   0  0  0  0  0  0  0  0  0
    1.0295   -5.6384    0.0000 C   0  0  0  0  0  0  0  0  0
  1  2  2  0  0  0  0
  2  3  1  0  0  0  0
  2 21  1  0  0  0  0
  3  4  1  0  0  0  0
  4  5  1  0  0  0  0
  4  9  1  0  0  0  0
  5  6  2  0  0  0  0
  6  7  1  0  0  0  0
  6 14  1  0  0  0  0
  7  8  1  0  0  0  0
  7 11  1  0  0  0  0
  8  9  1  0  0  0  0
  8 10  1  0  0  0  0
 11 12  1  0  0  0  0
 12 13  4  0  0  0  0
 12 20  4  0  0  0  0
 13 14  4  0  0  0  0
 13 18  4  0  0  0  0
 14 15  4  0  0  0  0
 15 16  4  0  0  0  0
 16 17  4  0  0  0  0
 17 18  4  0  0  0  0
 18 19  4  0  0  0  0
 19 20  4  0  0  0  0
 21 22  1  0  0  0  0
 21 24  1  0  0  0  0
 22 23  1  0  0  0  0
 24 25  1  0  0  0  0
M  STY  1   1 DAT
M  SAL   1  1  19
M  SDT   1 MRV_IMPLICIT_H                                        
M  SDD   1     0.0000    0.0000    DR    ALL  0       0  
M  SED   1 IMPL_H1
M  END
>  <Name_Molregno>
320346

>  <5-HT1A>
9.06

>  <5-HT1B>
7.73

>  <5-HT1D>
9.01

>  <5-HT2A>
8.71

>  <5-HT2C>
8.2

>  <Alpha-1A>
8.26

>  <Alpha-1B>
7.78

>  <Alpha-2A>
10.26

>  <Alpha-2B>
9.87

>  <Beta-1>
7.17

>  <Beta-2>
8.1

>  <DOPAMINE D1>
7.19

>  <DOPAMINE D2>
9.31

>  <DOPAMINE D3>
9.14

>  <DOPAMINE D4>
8.33

>  <DOPAMINE D5>
8.45

$$$$
321985
  Marvin  02231216192D 0   1.00000     0.00000     0

 31 35  0  0  0  0  0  0  0  0999 V2000
    4.0403    1.1934    0.0000 O   0  0  0  0  0  0  0  0  0
    3.3258    0.7809    0.0000 C   0  0  0  0  0  0  0  0  0
    3.3258   -0.0441    0.0000 C   0  0  0  0  0  0  0  0  0
    2.6114   -0.4566    0.0000 N   0  0  0  0  0  0  0  0  0
    2.6114   -1.2816    0.0000 C   0  0  0  0  0  0  0  0  0
    1.8969   -1.6941    0.0000 C   0  0  0  0  0  0  0  0  0
    1.1824   -1.2816    0.0000 N   0  0  0  0  0  0  0  0  0
    1.1824   -0.4566    0.0000 C   0  0  0  0  0  0  0  0  0
    1.8969   -0.0441    0.0000 C   0  0  0  0  0  0  0  0  0
    0.4679   -1.6941    0.0000 C   0  0  0  0  0  0  0  0  0
   -0.2465   -1.2816    0.0000 C   0  0  0  0  0  0  0  0  0
   -0.9610   -1.6941    0.0000 C   0  0  0  0  0  0  0  0  0
   -0.9610   -2.5191    0.0000 N   0  0  0  0  0  0  0  0  0
   -1.6755   -2.9316    0.0000 C   0  0  0  0  0  0  0  0  0
   -2.3899   -2.5191    0.0000 C   0  0  0  0  0  0  0  0  0
   -2.3899   -1.6941    0.0000 C   0  0  0  0  0  0  0  0  0
   -1.6755   -1.2816    0.0000 C   0  0  0  0  0  0  0  0  0
   -1.6755   -0.4566    0.0000 C   0  0  0  0  0  0  0  0  0
   -0.9610   -0.0441    0.0000 C   0  0  0  0  0  0  0  0  0
   -0.2465   -0.4566    0.0000 C   0  0  0  0  0  0  0  0  0
    4.0403    2.0184    0.0000 C   0  0  0  0  0  0  0  0  0
    4.7548    2.4309    0.0000 C   0  0  0  0  0  0  0  0  0
    4.7548    3.2559    0.0000 C   0  0  0  0  0  0  0  0  0
    5.4692    3.6684    0.0000 N   0  0  0  0  0  0  0  0  0
    6.1837    3.2559    0.0000 C   0  0  0  0  0  0  0  0  0
    6.1837    2.4309    0.0000 C   0  0  0  0  0  0  0  0  0
    5.4692    2.0184    0.0000 C   0  0  0  0  0  0  0  0  0
    6.8982    3.6684    0.0000 C   0  0  0  0  0  0  0  0  0
    4.0403    3.6684    0.0000 C   0  0  0  0  0  0  0  0  0
    3.3258    3.2559    0.0000 C   0  0  0  0  0  0  0  0  0
    3.3258    2.4309    0.0000 C   0  0  0  0  0  0  0  0  0
  1  2  1  0  0  0  0
  1 21  1  0  0  0  0
  2  3  1  0  0  0  0
  3  4  1  0  0  0  0
  4  5  1  0  0  0  0
  4  9  1  0  0  0  0
  5  6  1  0  0  0  0
  6  7  1  0  0  0  0
  7  8  1  0  0  0  0
  7 10  1  0  0  0  0
  8  9  1  0  0  0  0
 10 11  1  0  0  0  0
 11 12  4  0  0  0  0
 11 20  4  0  0  0  0
 12 13  4  0  0  0  0
 12 17  4  0  0  0  0
 13 14  4  0  0  0  0
 14 15  4  0  0  0  0
 15 16  4  0  0  0  0
 16 17  4  0  0  0  0
 17 18  4  0  0  0  0
 18 19  4  0  0  0  0
 19 20  4  0  0  0  0
 21 22  4  0  0  0  0
 21 31  4  0  0  0  0
 22 23  4  0  0  0  0
 22 27  4  0  0  0  0
 23 24  4  0  0  0  0
 23 29  4  0  0  0  0
 24 25  4  0  0  0  0
 25 26  4  0  0  0  0
 25 28  1  0  0  0  0
 26 27  4  0  0  0  0
 29 30  4  0  0  0  0
 30 31  4  0  0  0  0
M  END
>  <Name_Molregno>
321985

>  <5-HT1A>
6.5

>  <5-HT1B>
6.7

>  <5-HT1D>
9.1

>  <5-HT1E>
5

>  <5-HT2A>
5.6

>  <5-HT2C>
5.5

>  <5-HT5>
5.5

>  <5-HT6>
5

>  <5-HT7>
6.3

>  <Alpha-1B>
6

>  <Beta-2>
5.7

>  <DOPAMINE D2>
5.5

>  <DOPAMINE D3>
6

>  <DOPAMINE D4>
5

$$$$
323877
  Marvin  02231216192D 0   1.00000     0.00000     0

 23 26  0  0  1  0  0  0  0  0999 V2000
   -0.7165   -2.4653    0.0000 F   0  0  0  0  0  0  0  0  0
    0.0718   -2.7084    0.0000 C   0  0  0  0  0  0  0  0  0
    0.6766   -2.1473    0.0000 C   0  0  0  0  0  0  0  0  0
    1.4649   -2.3905    0.0000 C   0  0  0  0  0  0  0  0  0
    1.9793   -1.7455    0.0000 C   0  0  0  0  0  0  0  0  0
    1.7244   -0.9608    0.0000 O   0  0  0  0  0  0  0  0  0
    2.3918   -0.4759    0.0000 C   0  0  0  0  0  0  0  0  0
    3.0593   -0.9608    0.0000 C   0  0  0  0  0  0  0  0  0
    2.8043   -1.7455    0.0000 C   0  0  0  0  0  0  0  0  0
    3.3187   -2.3905    0.0000 C   0  0  0  0  0  0  0  0  0
    3.1351   -3.1948    0.0000 C   0  0  0  0  0  0  0  0  0
    2.3918   -3.5527    0.0000 O   0  0  0  0  0  0  0  0  0
    1.6485   -3.1948    0.0000 C   0  0  0  0  0  0  0  0  0
    1.0437   -3.7559    0.0000 C   0  0  0  0  0  0  0  0  0
    0.2554   -3.5128    0.0000 C   0  0  0  0  0  0  0  0  0
    3.7399   -3.7559    0.0000 C   0  0  0  0  0  0  0  0  0
    4.5282   -3.5128    0.0000 C   0  0  0  0  0  0  0  0  0
    4.7118   -2.7084    0.0000 C   0  0  0  0  0  0  0  0  0
    4.1070   -2.1473    0.0000 C   0  0  0  0  0  0  0  0  0
    2.3918    0.3491    0.0000 C   0  0  0  0  0  0  0  0  0
    3.1063    0.7616    0.0000 N   0  0  0  0  0  0  0  0  0
    3.1063    1.5866    0.0000 C   0  0  0  0  0  0  0  0  0
    3.8208    0.3491    0.0000 C   0  0  0  0  0  0  0  0  0
  1  2  1  0  0  0  0
  2  3  4  0  0  0  0
  2 15  4  0  0  0  0
  3  4  4  0  0  0  0
  4  5  1  0  0  0  0
  4 13  4  0  0  0  0
  5  6  1  0  0  0  0
  5  9  1  0  0  0  0
  6  7  1  0  0  0  0
  7  8  1  0  0  0  0
  7 20  1  0  0  0  0
  8  9  1  0  0  0  0
  9 10  1  0  0  0  0
 10 11  4  0  0  0  0
 10 19  4  0  0  0  0
 11 12  1  0  0  0  0
 11 16  4  0  0  0  0
 12 13  1  0  0  0  0
 13 14  4  0  0  0  0
 14 15  4  0  0  0  0
 16 17  4  0  0  0  0
 17 18  4  0  0  0  0
 18 19  4  0  0  0  0
 20 21  1  0  0  0  0
 21 22  1  0  0  0  0
 21 23  1  0  0  0  0
M  END
>  <Name_Molregno>
323877

>  <5-HT2A>
5.97

>  <5-HT2C>
7.77

>  <5-HT7>
7.17

>  <Alpha-2A>
6.59

>  <Alpha-2C>
6.68

>  <DOPAMINE D2>
7.1

>  <DOPAMINE D3>
7.02

>  <HISTAMINE H1>
7.8

$$$$
323878
  Marvin  02231216192D 0   1.00000     0.00000     0

 23 26  0  0  1  0  0  0  0  0999 V2000
   -0.7165   -2.4653    0.0000 Cl  0  0  0  0  0  0  0  0  0
    0.0718   -2.7084    0.0000 C   0  0  0  0  0  0  0  0  0
    0.6766   -2.1473    0.0000 C   0  0  0  0  0  0  0  0  0
    1.4649   -2.3905    0.0000 C   0  0  0  0  0  0  0  0  0
    1.9793   -1.7455    0.0000 C   0  0  0  0  0  0  0  0  0
    1.7244   -0.9608    0.0000 O   0  0  0  0  0  0  0  0  0
    2.3918   -0.4759    0.0000 C   0  0  0  0  0  0  0  0  0
    3.0593   -0.9608    0.0000 C   0  0  0  0  0  0  0  0  0
    2.8043   -1.7455    0.0000 C   0  0  0  0  0  0  0  0  0
    3.3187   -2.3905    0.0000 C   0  0  0  0  0  0  0  0  0
    3.1351   -3.1948    0.0000 C   0  0  0  0  0  0  0  0  0
    2.3918   -3.5527    0.0000 O   0  0  0  0  0  0  0  0  0
    1.6485   -3.1948    0.0000 C   0  0  0  0  0  0  0  0  0
    1.0437   -3.7559    0.0000 C   0  0  0  0  0  0  0  0  0
    0.2554   -3.5128    0.0000 C   0  0  0  0  0  0  0  0  0
    3.7399   -3.7559    0.0000 C   0  0  0  0  0  0  0  0  0
    4.5282   -3.5128    0.0000 C   0  0  0  0  0  0  0  0  0
    4.7118   -2.7084    0.0000 C   0  0  0  0  0  0  0  0  0
    4.1070   -2.1473    0.0000 C   0  0  0  0  0  0  0  0  0
    2.3918    0.3491    0.0000 C   0  0  0  0  0  0  0  0  0
    3.1063    0.7616    0.0000 N   0  0  0  0  0  0  0  0  0
    3.1063    1.5866    0.0000 C   0  0  0  0  0  0  0  0  0
    3.8208    0.3491    0.0000 C   0  0  0  0  0  0  0  0  0
  1  2  1  0  0  0  0
  2  3  4  0  0  0  0
  2 15  4  0  0  0  0
  3  4  4  0  0  0  0
  4  5  1  0  0  0  0
  4 13  4  0  0  0  0
  5  6  1  0  0  0  0
  5  9  1  0  0  0  0
  6  7  1  0  0  0  0
  7  8  1  0  0  0  0
  7 20  1  0  0  0  0
  8  9  1  0  0  0  0
  9 10  1  0  0  0  0
 10 11  4  0  0  0  0
 10 19  4  0  0  0  0
 11 12  1  0  0  0  0
 11 16  4  0  0  0  0
 12 13  1  0  0  0  0
 13 14  4  0  0  0  0
 14 15  4  0  0  0  0
 16 17  4  0  0  0  0
 17 18  4  0  0  0  0
 18 19  4  0  0  0  0
 20 21  1  0  0  0  0
 21 22  1  0  0  0  0
 21 23  1  0  0  0  0
M  END
>  <Name_Molregno>
323878

>  <5-HT2A>
8.04

>  <5-HT2C>
8.16

>  <5-HT7>
6.82

>  <Alpha-2A>
7.26

>  <Alpha-2C>
6.88

>  <DOPAMINE D1>
6.84

>  <DOPAMINE D2>
7.7

>  <DOPAMINE D3>
6.97

>  <HISTAMINE H1>
8.11

$$$$
323985
  Marvin  02231216192D 0   1.00000     0.00000     0

 23 26  0  0  1  0  0  0  0  0999 V2000
   -0.7165   -2.4653    0.0000 Br  0  0  0  0  0  0  0  0  0
    0.0718   -2.7084    0.0000 C   0  0  0  0  0  0  0  0  0
    0.6766   -2.1473    0.0000 C   0  0  0  0  0  0  0  0  0
    1.4649   -2.3905    0.0000 C   0  0  0  0  0  0  0  0  0
    1.9793   -1.7455    0.0000 C   0  0  0  0  0  0  0  0  0
    1.7244   -0.9608    0.0000 O   0  0  0  0  0  0  0  0  0
    2.3918   -0.4759    0.0000 C   0  0  0  0  0  0  0  0  0
    3.0593   -0.9608    0.0000 C   0  0  0  0  0  0  0  0  0
    2.8043   -1.7455    0.0000 C   0  0  0  0  0  0  0  0  0
    3.3187   -2.3905    0.0000 C   0  0  0  0  0  0  0  0  0
    3.1351   -3.1948    0.0000 C   0  0  0  0  0  0  0  0  0
    2.3918   -3.5527    0.0000 O   0  0  0  0  0  0  0  0  0
    1.6485   -3.1948    0.0000 C   0  0  0  0  0  0  0  0  0
    1.0437   -3.7559    0.0000 C   0  0  0  0  0  0  0  0  0
    0.2554   -3.5128    0.0000 C   0  0  0  0  0  0  0  0  0
    3.7399   -3.7559    0.0000 C   0  0  0  0  0  0  0  0  0
    4.5282   -3.5128    0.0000 C   0  0  0  0  0  0  0  0  0
    4.7118   -2.7084    0.0000 C   0  0  0  0  0  0  0  0  0
    4.1070   -2.1473    0.0000 C   0  0  0  0  0  0  0  0  0
    2.3918    0.3491    0.0000 C   0  0  0  0  0  0  0  0  0
    3.1063    0.7616    0.0000 N   0  0  0  0  0  0  0  0  0
    3.1063    1.5866    0.0000 C   0  0  0  0  0  0  0  0  0
    3.8208    0.3491    0.0000 C   0  0  0  0  0  0  0  0  0
  1  2  1  0  0  0  0
  2  3  4  0  0  0  0
  2 15  4  0  0  0  0
  3  4  4  0  0  0  0
  4  5  1  0  0  0  0
  4 13  4  0  0  0  0
  5  6  1  0  0  0  0
  5  9  1  0  0  0  0
  6  7  1  0  0  0  0
  7  8  1  0  0  0  0
  7 20  1  0  0  0  0
  8  9  1  0  0  0  0
  9 10  1  0  0  0  0
 10 11  4  0  0  0  0
 10 19  4  0  0  0  0
 11 12  1  0  0  0  0
 11 16  4  0  0  0  0
 12 13  1  0  0  0  0
 13 14  4  0  0  0  0
 14 15  4  0  0  0  0
 16 17  4  0  0  0  0
 17 18  4  0  0  0  0
 18 19  4  0  0  0  0
 20 21  1  0  0  0  0
 21 22  1  0  0  0  0
 21 23  1  0  0  0  0
M  END
>  <Name_Molregno>
323985

>  <5-HT2A>
7.74

>  <5-HT2C>
7.78

>  <5-HT7>
7.46

>  <Alpha-2A>
6.39

>  <Alpha-2C>
6.13

>  <DOPAMINE D1>
6.81

>  <DOPAMINE D2>
6.8

>  <DOPAMINE D3>
7.02

>  <HISTAMINE H1>
7.38

$$$$
323986
  Marvin  02231216192D 0   1.00000     0.00000     0

 23 26  0  0  1  0  0  0  0  0999 V2000
    1.2300    2.6153    0.0000 S   0  0  0  0  0  0  0  0  0
    1.9733    2.2574    0.0000 C   0  0  0  0  0  0  0  0  0
    2.1569    1.4530    0.0000 C   0  0  0  0  0  0  0  0  0
    2.9453    1.2099    0.0000 C   0  0  0  0  0  0  0  0  0
    3.5500    1.7710    0.0000 C   0  0  0  0  0  0  0  0  0
    4.3384    1.5278    0.0000 F   0  0  0  0  0  0  0  0  0
    3.3664    2.5753    0.0000 C   0  0  0  0  0  0  0  0  0
    2.5781    2.8185    0.0000 C   0  0  0  0  0  0  0  0  0
    1.6425    0.8080    0.0000 C   0  0  0  0  0  0  0  0  0
    1.8975    0.0234    0.0000 O   0  0  0  0  0  0  0  0  0
    1.2300   -0.4615    0.0000 C   0  0  0  0  0  0  0  0  0
    0.5626    0.0234    0.0000 C   0  0  0  0  0  0  0  0  0
    0.8175    0.8080    0.0000 C   0  0  0  0  0  0  0  0  0
    0.3032    1.4530    0.0000 C   0  0  0  0  0  0  0  0  0
    0.4867    2.2574    0.0000 C   0  0  0  0  0  0  0  0  0
   -0.1180    2.8185    0.0000 C   0  0  0  0  0  0  0  0  0
   -0.9064    2.5753    0.0000 C   0  0  0  0  0  0  0  0  0
   -1.0900    1.7710    0.0000 C   0  0  0  0  0  0  0  0  0
   -0.4852    1.2099    0.0000 C   0  0  0  0  0  0  0  0  0
    1.2300   -1.2865    0.0000 C   0  0  0  0  0  0  0  0  0
    0.5156   -1.6990    0.0000 N   0  0  0  0  0  0  0  0  0
    0.5156   -2.5240    0.0000 C   0  0  0  0  0  0  0  0  0
   -0.1989   -1.2865    0.0000 C   0  0  0  0  0  0  0  0  0
  1  2  1  0  0  0  0
  1 15  1  0  0  0  0
  2  3  4  0  0  0  0
  2  8  4  0  0  0  0
  3  4  4  0  0  0  0
  3  9  1  0  0  0  0
  4  5  4  0  0  0  0
  5  6  1  0  0  0  0
  5  7  4  0  0  0  0
  7  8  4  0  0  0  0
  9 10  1  0  0  0  0
  9 13  1  0  0  0  0
 10 11  1  0  0  0  0
 11 12  1  0  0  0  0
 11 20  1  0  0  0  0
 12 13  1  0  0  0  0
 13 14  1  0  0  0  0
 14 15  4  0  0  0  0
 14 19  4  0  0  0  0
 15 16  4  0  0  0  0
 16 17  4  0  0  0  0
 17 18  4  0  0  0  0
 18 19  4  0  0  0  0
 20 21  1  0  0  0  0
 21 22  1  0  0  0  0
 21 23  1  0  0  0  0
M  END
>  <Name_Molregno>
323986

>  <5-HT2A>
8.89

>  <5-HT2C>
9.27

>  <5-HT7>
8.01

>  <Alpha-2A>
7.06

>  <Alpha-2C>
7.13

>  <DOPAMINE D1>
8.04

>  <DOPAMINE D2>
8.31

>  <DOPAMINE D3>
8.14

>  <HISTAMINE H1>
9.07

$$$$
324778
  Marvin  02231216192D 0   1.00000     0.00000     0

 22 25  0  0  1  0  0  0  0  0999 V2000
    0.2576    0.9399    0.0000 O   0  0  0  0  0  0  0  0  0
    0.5126    0.1553    0.0000 C   0  0  0  0  0  0  0  0  0
    1.3376    0.1553    0.0000 C   0  0  0  0  0  0  0  0  0
    1.5925    0.9399    0.0000 C   0  0  0  0  0  0  0  0  0
    0.9251    1.4248    0.0000 C   0  0  0  0  0  0  0  0  0
    0.9251    2.2498    0.0000 C   0  0  0  0  0  0  0  0  0
    1.6395    2.6623    0.0000 N   0  0  0  0  0  0  0  0  0
    1.6395    3.4873    0.0000 C   0  0  0  0  0  0  0  0  0
    2.3540    2.2498    0.0000 C   0  0  0  0  0  0  0  0  0
    1.8519   -0.4897    0.0000 C   0  0  0  0  0  0  0  0  0
    1.6684   -1.2940    0.0000 C   0  0  0  0  0  0  0  0  0
    0.9251   -1.6520    0.0000 C   0  0  0  0  0  0  0  0  0
    0.1818   -1.2940    0.0000 C   0  0  0  0  0  0  0  0  0
   -0.0018   -0.4897    0.0000 C   0  0  0  0  0  0  0  0  0
   -0.7902   -0.2466    0.0000 C   0  0  0  0  0  0  0  0  0
   -1.3949   -0.8077    0.0000 C   0  0  0  0  0  0  0  0  0
   -1.2114   -1.6120    0.0000 C   0  0  0  0  0  0  0  0  0
   -0.4230   -1.8552    0.0000 C   0  0  0  0  0  0  0  0  0
    2.2731   -1.8552    0.0000 C   0  0  0  0  0  0  0  0  0
    3.0615   -1.6120    0.0000 C   0  0  0  0  0  0  0  0  0
    3.2451   -0.8077    0.0000 C   0  0  0  0  0  0  0  0  0
    2.6403   -0.2466    0.0000 C   0  0  0  0  0  0  0  0  0
  1  2  1  0  0  0  0
  1  5  1  0  0  0  0
  2  3  1  0  0  0  0
  2 14  1  0  0  0  0
  3  4  1  0  0  0  0
  3 10  1  0  0  0  0
  4  5  1  0  0  0  0
  5  6  1  0  0  0  0
  6  7  1  0  0  0  0
  7  8  1  0  0  0  0
  7  9  1  0  0  0  0
 10 11  4  0  0  0  0
 10 22  4  0  0  0  0
 11 12  1  0  0  0  0
 11 19  4  0  0  0  0
 12 13  1  0  0  0  0
 13 14  4  0  0  0  0
 13 18  4  0  0  0  0
 14 15  4  0  0  0  0
 15 16  4  0  0  0  0
 16 17  4  0  0  0  0
 17 18  4  0  0  0  0
 19 20  4  0  0  0  0
 20 21  4  0  0  0  0
 21 22  4  0  0  0  0
M  END
>  <Name_Molregno>
324778

>  <5-HT2A>
8.6

>  <5-HT2C>
9.03

>  <5-HT7>
7.89

>  <Alpha-2A>
6.9

>  <Alpha-2C>
7.16

>  <DOPAMINE D1>
7.2

>  <DOPAMINE D2>
7.21

>  <DOPAMINE D3>
7.08

>  <HISTAMINE H1>
9.37

$$$$
325916
  Marvin  02231216192D 0   1.00000     0.00000     0

 29 34  0  0  1  0  0  0  0  0999 V2000
    0.0505    0.1675    0.0000 Br  0  0  0  0  0  0  0  0  0
    0.0197   -0.6569    0.0000 C   0  0  0  0  0  0  0  0  0
    0.7182   -1.0958    0.0000 C   0  0  0  0  0  0  0  0  0
    0.6874   -1.9202    0.0000 C   0  0  0  0  0  0  0  0  0
    1.4435   -2.2501    0.0000 C   0  0  0  0  0  0  0  0  0
    2.1354   -1.8008    0.0000 O   0  0  0  0  0  0  0  0  0
    2.7766   -2.3200    0.0000 C   0  0  0  0  0  0  0  0  0
    2.4809   -3.0902    0.0000 C   0  0  0  0  0  0  0  0  0
    1.6571   -3.0470    0.0000 C   0  0  0  0  0  0  0  0  0
    1.1672   -3.7108    0.0000 C   0  0  0  0  0  0  0  0  0
    0.3427   -3.7417    0.0000 C   0  0  0  0  0  0  0  0  0
   -0.1954   -3.1164    0.0000 O   0  0  0  0  0  0  0  0  0
   -0.0420   -2.3057    0.0000 C   0  0  0  0  0  0  0  0  0
   -0.7406   -1.8668    0.0000 C   0  0  0  0  0  0  0  0  0
   -0.7097   -1.0424    0.0000 C   0  0  0  0  0  0  0  0  0
   -0.0427   -4.4711    0.0000 C   0  0  0  0  0  0  0  0  0
    0.3962   -5.1696    0.0000 C   0  0  0  0  0  0  0  0  0
    1.2206   -5.1388    0.0000 C   0  0  0  0  0  0  0  0  0
    1.6061   -4.4094    0.0000 C   0  0  0  0  0  0  0  0  0
    3.5735   -2.1065    0.0000 C   0  0  0  0  0  0  0  0  0
    4.1568   -2.6898    0.0000 N   0  0  0  0  0  0  0  0  0
    4.1568   -3.5148    0.0000 O   0  0  0  0  0  0  0  0  0
    4.9818   -3.5148    0.0000 C   0  0  0  0  0  0  0  0  0
    4.9818   -2.6898    0.0000 C   0  0  0  0  0  0  0  0  0
    5.6963   -2.2773    0.0000 C   0  0  0  0  0  0  0  0  0
    6.4108   -2.6898    0.0000 C   0  0  0  0  0  0  0  0  0
    7.1253   -2.2773    0.0000 N   0  0  0  0  0  0  0  0  0
    6.4108   -3.5148    0.0000 C   0  0  0  0  0  0  0  0  0
    5.6963   -3.9273    0.0000 C   0  0  0  0  0  0  0  0  0
  1  2  1  0  0  0  0
  2  3  4  0  0  0  0
  2 15  4  0  0  0  0
  3  4  4  0  0  0  0
  4  5  1  0  0  0  0
  4 13  4  0  0  0  0
  5  6  1  0  0  0  0
  5  9  1  0  0  0  0
  6  7  1  0  0  0  0
  7  8  1  0  0  0  0
  7 20  1  0  0  0  0
  8  9  1  0  0  0  0
  9 10  1  0  0  0  0
 10 11  4  0  0  0  0
 10 19  4  0  0  0  0
 11 12  1  0  0  0  0
 11 16  4  0  0  0  0
 12 13  1  0  0  0  0
 13 14  4  0  0  0  0
 14 15  4  0  0  0  0
 16 17  4  0  0  0  0
 17 18  4  0  0  0  0
 18 19  4  0  0  0  0
 20 21  1  0  0  0  0
 21 22  4  0  0  0  0
 21 24  4  0  0  0  0
 22 23  4  0  0  0  0
 23 24  4  0  0  0  0
 23 29  4  0  0  0  0
 24 25  4  0  0  0  0
 25 26  4  0  0  0  0
 26 27  1  0  0  0  0
 26 28  4  0  0  0  0
 28 29  4  0  0  0  0
M  END
>  <Name_Molregno>
325916

>  <5-HT2A>
6.59

>  <5-HT2C>
6.57

$$$$
325951
  Marvin  02231216192D 0   1.00000     0.00000     0

 22 25  0  0  1  0  0  0  0  0999 V2000
    0.2576    0.9399    0.0000 O   0  0  0  0  0  0  0  0  0
    0.5126    0.1553    0.0000 C   0  0  0  0  0  0  0  0  0
    1.3376    0.1553    0.0000 C   0  0  0  0  0  0  0  0  0
    1.5925    0.9399    0.0000 C   0  0  0  0  0  0  0  0  0
    0.9251    1.4248    0.0000 C   0  0  0  0  0  0  0  0  0
    0.9251    2.2498    0.0000 C   0  0  0  0  0  0  0  0  0
    1.6395    2.6623    0.0000 N   0  0  0  0  0  0  0  0  0
    1.6395    3.4873    0.0000 C   0  0  0  0  0  0  0  0  0
    2.3540    2.2498    0.0000 C   0  0  0  0  0  0  0  0  0
    1.8519   -0.4897    0.0000 C   0  0  0  0  0  0  0  0  0
    1.6684   -1.2940    0.0000 C   0  0  0  0  0  0  0  0  0
    0.9251   -1.6520    0.0000 O   0  0  0  0  0  0  0  0  0
    0.1818   -1.2940    0.0000 C   0  0  0  0  0  0  0  0  0
   -0.0018   -0.4897    0.0000 C   0  0  0  0  0  0  0  0  0
   -0.7902   -0.2466    0.0000 C   0  0  0  0  0  0  0  0  0
   -1.3949   -0.8077    0.0000 C   0  0  0  0  0  0  0  0  0
   -1.2114   -1.6120    0.0000 C   0  0  0  0  0  0  0  0  0
   -0.4230   -1.8552    0.0000 C   0  0  0  0  0  0  0  0  0
    2.2731   -1.8552    0.0000 C   0  0  0  0  0  0  0  0  0
    3.0615   -1.6120    0.0000 C   0  0  0  0  0  0  0  0  0
    3.2451   -0.8077    0.0000 C   0  0  0  0  0  0  0  0  0
    2.6403   -0.2466    0.0000 C   0  0  0  0  0  0  0  0  0
  1  2  1  0  0  0  0
  1  5  1  0  0  0  0
  2  3  1  0  0  0  0
  2 14  1  0  0  0  0
  3  4  1  0  0  0  0
  3 10  1  0  0  0  0
  4  5  1  0  0  0  0
  5  6  1  0  0  0  0
  6  7  1  0  0  0  0
  7  8  1  0  0  0  0
  7  9  1  0  0  0  0
 10 11  4  0  0  0  0
 10 22  4  0  0  0  0
 11 12  1  0  0  0  0
 11 19  4  0  0  0  0
 12 13  1  0  0  0  0
 13 14  4  0  0  0  0
 13 18  4  0  0  0  0
 14 15  4  0  0  0  0
 15 16  4  0  0  0  0
 16 17  4  0  0  0  0
 17 18  4  0  0  0  0
 19 20  4  0  0  0  0
 20 21  4  0  0  0  0
 21 22  4  0  0  0  0
M  END
>  <Name_Molregno>
325951

>  <5-HT2A>
7.42

>  <5-HT2C>
6.74

$$$$
325999
  Marvin  02231216192D 0   1.00000     0.00000     0

 30 35  0  0  1  0  0  0  0  0999 V2000
    0.0933    0.2199    0.0000 Br  0  0  0  0  0  0  0  0  0
    0.0624   -0.6045    0.0000 C   0  0  0  0  0  0  0  0  0
    0.7610   -1.0435    0.0000 C   0  0  0  0  0  0  0  0  0
    0.7301   -1.8679    0.0000 C   0  0  0  0  0  0  0  0  0
    1.4863   -2.1978    0.0000 C   0  0  0  0  0  0  0  0  0
    2.1782   -1.7485    0.0000 O   0  0  0  0  0  0  0  0  0
    2.8193   -2.2677    0.0000 C   0  0  0  0  0  0  0  0  0
    2.5237   -3.0379    0.0000 C   0  0  0  0  0  0  0  0  0
    1.6998   -2.9947    0.0000 C   0  0  0  0  0  0  0  0  0
    1.2099   -3.6585    0.0000 C   0  0  0  0  0  0  0  0  0
    0.3855   -3.6893    0.0000 C   0  0  0  0  0  0  0  0  0
   -0.1526   -3.0640    0.0000 O   0  0  0  0  0  0  0  0  0
    0.0007   -2.2534    0.0000 C   0  0  0  0  0  0  0  0  0
   -0.6978   -1.8145    0.0000 C   0  0  0  0  0  0  0  0  0
   -0.6670   -0.9900    0.0000 C   0  0  0  0  0  0  0  0  0
   -0.0000   -4.4187    0.0000 C   0  0  0  0  0  0  0  0  0
    0.4389   -5.1173    0.0000 C   0  0  0  0  0  0  0  0  0
    1.2633   -5.0864    0.0000 C   0  0  0  0  0  0  0  0  0
    1.6488   -4.3570    0.0000 C   0  0  0  0  0  0  0  0  0
    3.6162   -2.0541    0.0000 C   0  0  0  0  0  0  0  0  0
    4.1996   -2.6375    0.0000 N   0  0  0  0  0  0  0  0  0
    4.1996   -3.4625    0.0000 O   0  0  0  0  0  0  0  0  0
    5.0246   -3.4625    0.0000 C   0  0  0  0  0  0  0  0  0
    5.0246   -2.6375    0.0000 C   0  0  0  0  0  0  0  0  0
    5.7391   -2.2250    0.0000 C   0  0  0  0  0  0  0  0  0
    6.4535   -2.6375    0.0000 C   0  0  0  0  0  0  0  0  0
    6.4535   -3.4625    0.0000 C   0  0  0  0  0  0  0  0  0
    5.7391   -3.8750    0.0000 C   0  0  0  0  0  0  0  0  0
    7.1680   -2.2250    0.0000 C   0  0  0  0  0  0  0  0  0
    7.8825   -1.8125    0.0000 N   0  0  0  0  0  0  0  0  0
  1  2  1  0  0  0  0
  2  3  4  0  0  0  0
  2 15  4  0  0  0  0
  3  4  4  0  0  0  0
  4  5  1  0  0  0  0
  4 13  4  0  0  0  0
  5  6  1  0  0  0  0
  5  9  1  0  0  0  0
  6  7  1  0  0  0  0
  7  8  1  0  0  0  0
  7 20  1  0  0  0  0
  8  9  1  0  0  0  0
  9 10  1  0  0  0  0
 10 11  4  0  0  0  0
 10 19  4  0  0  0  0
 11 12  1  0  0  0  0
 11 16  4  0  0  0  0
 12 13  1  0  0  0  0
 13 14  4  0  0  0  0
 14 15  4  0  0  0  0
 16 17  4  0  0  0  0
 17 18  4  0  0  0  0
 18 19  4  0  0  0  0
 20 21  1  0  0  0  0
 21 22  4  0  0  0  0
 21 24  4  0  0  0  0
 22 23  4  0  0  0  0
 23 24  4  0  0  0  0
 23 28  4  0  0  0  0
 24 25  4  0  0  0  0
 25 26  4  0  0  0  0
 26 27  4  0  0  0  0
 26 29  1  0  0  0  0
 27 28  4  0  0  0  0
 29 30  3  0  0  0  0
M  END
>  <Name_Molregno>
325999

>  <5-HT2A>
6.73

>  <5-HT2C>
6.74

$$$$
326001
  Marvin  02231216192D 0   1.00000     0.00000     0

 34 40  0  0  1  0  0  0  0  0999 V2000
   -0.0009    0.1675    0.0000 Br  0  0  0  0  0  0  0  0  0
   -0.0317   -0.6569    0.0000 C   0  0  0  0  0  0  0  0  0
    0.6668   -1.0959    0.0000 C   0  0  0  0  0  0  0  0  0
    0.6360   -1.9203    0.0000 C   0  0  0  0  0  0  0  0  0
    1.3922   -2.2502    0.0000 C   0  0  0  0  0  0  0  0  0
    2.0841   -1.8009    0.0000 O   0  0  0  0  0  0  0  0  0
    2.7252   -2.3201    0.0000 C   0  0  0  0  0  0  0  0  0
    2.4296   -3.0903    0.0000 C   0  0  0  0  0  0  0  0  0
    1.6057   -3.0471    0.0000 C   0  0  0  0  0  0  0  0  0
    1.1158   -3.7109    0.0000 C   0  0  0  0  0  0  0  0  0
    0.2914   -3.7417    0.0000 C   0  0  0  0  0  0  0  0  0
   -0.2468   -3.1164    0.0000 O   0  0  0  0  0  0  0  0  0
   -0.0934   -2.3058    0.0000 C   0  0  0  0  0  0  0  0  0
   -0.7919   -1.8669    0.0000 C   0  0  0  0  0  0  0  0  0
   -0.7611   -1.0424    0.0000 C   0  0  0  0  0  0  0  0  0
   -0.0941   -4.4711    0.0000 C   0  0  0  0  0  0  0  0  0
    0.3448   -5.1697    0.0000 C   0  0  0  0  0  0  0  0  0
    1.1692   -5.1388    0.0000 C   0  0  0  0  0  0  0  0  0
    1.5547   -4.4094    0.0000 C   0  0  0  0  0  0  0  0  0
    3.5221   -2.1065    0.0000 C   0  0  0  0  0  0  0  0  0
    4.1055   -2.6899    0.0000 N   0  0  0  0  0  0  0  0  0
    4.1055   -3.5149    0.0000 O   0  0  0  0  0  0  0  0  0
    4.9305   -3.5149    0.0000 C   0  0  0  0  0  0  0  0  0
    4.9305   -2.6899    0.0000 C   0  0  0  0  0  0  0  0  0
    5.6449   -2.2774    0.0000 C   0  0  0  0  0  0  0  0  0
    6.3594   -2.6899    0.0000 C   0  0  0  0  0  0  0  0  0
    7.0739   -2.2774    0.0000 N   0  0  0  0  0  0  0  0  0
    7.0739   -1.4524    0.0000 C   0  0  0  0  0  0  0  0  0
    7.7883   -1.0399    0.0000 C   0  0  0  0  0  0  0  0  0
    8.5028   -1.4524    0.0000 O   0  0  0  0  0  0  0  0  0
    8.5028   -2.2774    0.0000 C   0  0  0  0  0  0  0  0  0
    7.7883   -2.6899    0.0000 C   0  0  0  0  0  0  0  0  0
    6.3594   -3.5149    0.0000 C   0  0  0  0  0  0  0  0  0
    5.6449   -3.9274    0.0000 C   0  0  0  0  0  0  0  0  0
  1  2  1  0  0  0  0
  2  3  4  0  0  0  0
  2 15  4  0  0  0  0
  3  4  4  0  0  0  0
  4  5  1  0  0  0  0
  4 13  4  0  0  0  0
  5  6  1  0  0  0  0
  5  9  1  0  0  0  0
  6  7  1  0  0  0  0
  7  8  1  0  0  0  0
  7 20  1  0  0  0  0
  8  9  1  0  0  0  0
  9 10  1  0  0  0  0
 10 11  4  0  0  0  0
 10 19  4  0  0  0  0
 11 12  1  0  0  0  0
 11 16  4  0  0  0  0
 12 13  1  0  0  0  0
 13 14  4  0  0  0  0
 14 15  4  0  0  0  0
 16 17  4  0  0  0  0
 17 18  4  0  0  0  0
 18 19  4  0  0  0  0
 20 21  1  0  0  0  0
 21 22  4  0  0  0  0
 21 24  4  0  0  0  0
 22 23  4  0  0  0  0
 23 24  4  0  0  0  0
 23 34  4  0  0  0  0
 24 25  4  0  0  0  0
 25 26  4  0  0  0  0
 26 27  1  0  0  0  0
 26 33  4  0  0  0  0
 27 28  1  0  0  0  0
 27 32  1  0  0  0  0
 28 29  1  0  0  0  0
 29 30  1  0  0  0  0
 30 31  1  0  0  0  0
 31 32  1  0  0  0  0
 33 34  4  0  0  0  0
M  END
>  <Name_Molregno>
326001

>  <5-HT2A>
6.51

>  <5-HT2C>
5.26

$$$$
326050
  Marvin  02231216192D 0   1.00000     0.00000     0

 33 38  0  0  1  0  0  0  0  0999 V2000
    0.0850    0.0707    0.0000 Br  0  0  0  0  0  0  0  0  0
    0.0542   -0.7538    0.0000 C   0  0  0  0  0  0  0  0  0
    0.7527   -1.1927    0.0000 C   0  0  0  0  0  0  0  0  0
    0.7219   -2.0171    0.0000 C   0  0  0  0  0  0  0  0  0
    1.4780   -2.3470    0.0000 C   0  0  0  0  0  0  0  0  0
    2.1699   -1.8977    0.0000 O   0  0  0  0  0  0  0  0  0
    2.8111   -2.4169    0.0000 C   0  0  0  0  0  0  0  0  0
    2.5154   -3.1871    0.0000 C   0  0  0  0  0  0  0  0  0
    1.6916   -3.1439    0.0000 C   0  0  0  0  0  0  0  0  0
    1.2017   -3.8077    0.0000 C   0  0  0  0  0  0  0  0  0
    0.3772   -3.8385    0.0000 C   0  0  0  0  0  0  0  0  0
   -0.1609   -3.2132    0.0000 O   0  0  0  0  0  0  0  0  0
   -0.0075   -2.4026    0.0000 C   0  0  0  0  0  0  0  0  0
   -0.7061   -1.9637    0.0000 C   0  0  0  0  0  0  0  0  0
   -0.6752   -1.1392    0.0000 C   0  0  0  0  0  0  0  0  0
   -0.0083   -4.5679    0.0000 C   0  0  0  0  0  0  0  0  0
    0.4307   -5.2665    0.0000 C   0  0  0  0  0  0  0  0  0
    1.2551   -5.2356    0.0000 C   0  0  0  0  0  0  0  0  0
    1.6406   -4.5062    0.0000 C   0  0  0  0  0  0  0  0  0
    3.6080   -2.2033    0.0000 C   0  0  0  0  0  0  0  0  0
    4.1913   -2.7867    0.0000 N   0  0  0  0  0  0  0  0  0
    4.1913   -3.6117    0.0000 O   0  0  0  0  0  0  0  0  0
    5.0163   -3.6117    0.0000 C   0  0  0  0  0  0  0  0  0
    5.0163   -2.7867    0.0000 C   0  0  0  0  0  0  0  0  0
    5.7308   -2.3742    0.0000 C   0  0  0  0  0  0  0  0  0
    6.4453   -2.7867    0.0000 C   0  0  0  0  0  0  0  0  0
    6.4453   -3.6117    0.0000 C   0  0  0  0  0  0  0  0  0
    5.7308   -4.0242    0.0000 C   0  0  0  0  0  0  0  0  0
    7.1597   -2.3742    0.0000 C   0  0  0  0  0  0  0  0  0
    7.1597   -1.5492    0.0000 O   0  0  0  0  0  0  0  0  0
    7.8742   -1.1367    0.0000 C   0  0  0  0  0  0  0  0  0
    7.8742   -0.3117    0.0000 C   0  0  0  0  0  0  0  0  0
    7.8742   -2.7867    0.0000 O   0  0  0  0  0  0  0  0  0
  1  2  1  0  0  0  0
  2  3  4  0  0  0  0
  2 15  4  0  0  0  0
  3  4  4  0  0  0  0
  4  5  1  0  0  0  0
  4 13  4  0  0  0  0
  5  6  1  0  0  0  0
  5  9  1  0  0  0  0
  6  7  1  0  0  0  0
  7  8  1  0  0  0  0
  7 20  1  0  0  0  0
  8  9  1  0  0  0  0
  9 10  1  0  0  0  0
 10 11  4  0  0  0  0
 10 19  4  0  0  0  0
 11 12  1  0  0  0  0
 11 16  4  0  0  0  0
 12 13  1  0  0  0  0
 13 14  4  0  0  0  0
 14 15  4  0  0  0  0
 16 17  4  0  0  0  0
 17 18  4  0  0  0  0
 18 19  4  0  0  0  0
 20 21  1  0  0  0  0
 21 22  4  0  0  0  0
 21 24  4  0  0  0  0
 22 23  4  0  0  0  0
 23 24  4  0  0  0  0
 23 28  4  0  0  0  0
 24 25  4  0  0  0  0
 25 26  4  0  0  0  0
 26 27  4  0  0  0  0
 26 29  1  0  0  0  0
 27 28  4  0  0  0  0
 29 30  1  0  0  0  0
 29 33  2  0  0  0  0
 30 31  1  0  0  0  0
 31 32  1  0  0  0  0
M  END
>  <Name_Molregno>
326050

>  <5-HT2A>
7.01

>  <5-HT2C>
6.61

$$$$
326093
  Marvin  02231216192D 0   1.00000     0.00000     0

 35 41  0  0  1  0  0  0  0  0999 V2000
    0.8427    1.7600    0.0000 Br  0  0  0  0  0  0  0  0  0
    0.8119    0.9356    0.0000 C   0  0  0  0  0  0  0  0  0
    1.5104    0.4966    0.0000 C   0  0  0  0  0  0  0  0  0
    1.4795   -0.3278    0.0000 C   0  0  0  0  0  0  0  0  0
    2.2357   -0.6577    0.0000 C   0  0  0  0  0  0  0  0  0
    2.9276   -0.2084    0.0000 O   0  0  0  0  0  0  0  0  0
    3.5688   -0.7276    0.0000 C   0  0  0  0  0  0  0  0  0
    3.2731   -1.4978    0.0000 C   0  0  0  0  0  0  0  0  0
    2.4492   -1.4546    0.0000 C   0  0  0  0  0  0  0  0  0
    1.9593   -2.1184    0.0000 C   0  0  0  0  0  0  0  0  0
    1.1349   -2.1492    0.0000 C   0  0  0  0  0  0  0  0  0
    0.5968   -1.5239    0.0000 O   0  0  0  0  0  0  0  0  0
    0.7502   -0.7133    0.0000 C   0  0  0  0  0  0  0  0  0
    0.0516   -0.2744    0.0000 C   0  0  0  0  0  0  0  0  0
    0.0825    0.5501    0.0000 C   0  0  0  0  0  0  0  0  0
    0.7494   -2.8786    0.0000 C   0  0  0  0  0  0  0  0  0
    1.1883   -3.5772    0.0000 C   0  0  0  0  0  0  0  0  0
    2.0128   -3.5463    0.0000 C   0  0  0  0  0  0  0  0  0
    2.3983   -2.8169    0.0000 C   0  0  0  0  0  0  0  0  0
    4.3657   -0.5140    0.0000 C   0  0  0  0  0  0  0  0  0
    4.9490   -1.0974    0.0000 N   0  0  0  0  0  0  0  0  0
    4.9490   -1.9224    0.0000 O   0  0  0  0  0  0  0  0  0
    5.7740   -1.9224    0.0000 C   0  0  0  0  0  0  0  0  0
    5.7740   -1.0974    0.0000 C   0  0  0  0  0  0  0  0  0
    6.4885   -0.6849    0.0000 C   0  0  0  0  0  0  0  0  0
    7.2030   -1.0974    0.0000 C   0  0  0  0  0  0  0  0  0
    7.2030   -1.9224    0.0000 C   0  0  0  0  0  0  0  0  0
    6.4885   -2.3349    0.0000 C   0  0  0  0  0  0  0  0  0
    7.9174   -0.6849    0.0000 C   0  0  0  0  0  0  0  0  0
    8.6319   -1.0974    0.0000 N   0  0  0  0  0  0  0  0  0
    9.3464   -0.6849    0.0000 C   0  0  0  0  0  0  0  0  0
   10.0608   -1.0974    0.0000 C   0  0  0  0  0  0  0  0  0
   10.0608   -1.9224    0.0000 O   0  0  0  0  0  0  0  0  0
    9.3464   -2.3349    0.0000 C   0  0  0  0  0  0  0  0  0
    8.6319   -1.9224    0.0000 C   0  0  0  0  0  0  0  0  0
  1  2  1  0  0  0  0
  2  3  4  0  0  0  0
  2 15  4  0  0  0  0
  3  4  4  0  0  0  0
  4  5  1  0  0  0  0
  4 13  4  0  0  0  0
  5  6  1  0  0  0  0
  5  9  1  0  0  0  0
  6  7  1  0  0  0  0
  7  8  1  0  0  0  0
  7 20  1  0  0  0  0
  8  9  1  0  0  0  0
  9 10  1  0  0  0  0
 10 11  4  0  0  0  0
 10 19  4  0  0  0  0
 11 12  1  0  0  0  0
 11 16  4  0  0  0  0
 12 13  1  0  0  0  0
 13 14  4  0  0  0  0
 14 15  4  0  0  0  0
 16 17  4  0  0  0  0
 17 18  4  0  0  0  0
 18 19  4  0  0  0  0
 20 21  1  0  0  0  0
 21 22  4  0  0  0  0
 21 24  4  0  0  0  0
 22 23  4  0  0  0  0
 23 24  4  0  0  0  0
 23 28  4  0  0  0  0
 24 25  4  0  0  0  0
 25 26  4  0  0  0  0
 26 27  4  0  0  0  0
 26 29  1  0  0  0  0
 27 28  4  0  0  0  0
 29 30  1  0  0  0  0
 30 31  1  0  0  0  0
 30 35  1  0  0  0  0
 31 32  1  0  0  0  0
 32 33  1  0  0  0  0
 33 34  1  0  0  0  0
 34 35  1  0  0  0  0
M  END
>  <Name_Molregno>
326093

>  <5-HT2A>
6.72

>  <5-HT2C>
5.39

$$$$
326181
  Marvin  02231216192D 0   1.00000     0.00000     0

 34 40  0  0  1  0  0  0  0  0999 V2000
   -0.0009    0.1675    0.0000 Br  0  0  0  0  0  0  0  0  0
   -0.0317   -0.6569    0.0000 C   0  0  0  0  0  0  0  0  0
    0.6668   -1.0959    0.0000 C   0  0  0  0  0  0  0  0  0
    0.6360   -1.9203    0.0000 C   0  0  0  0  0  0  0  0  0
    1.3922   -2.2502    0.0000 C   0  0  0  0  0  0  0  0  0
    2.0841   -1.8009    0.0000 O   0  0  0  0  0  0  0  0  0
    2.7252   -2.3201    0.0000 C   0  0  0  0  0  0  0  0  0
    2.4296   -3.0903    0.0000 C   0  0  0  0  0  0  0  0  0
    1.6057   -3.0471    0.0000 C   0  0  0  0  0  0  0  0  0
    1.1158   -3.7109    0.0000 C   0  0  0  0  0  0  0  0  0
    0.2914   -3.7417    0.0000 C   0  0  0  0  0  0  0  0  0
   -0.2468   -3.1164    0.0000 O   0  0  0  0  0  0  0  0  0
   -0.0934   -2.3058    0.0000 C   0  0  0  0  0  0  0  0  0
   -0.7919   -1.8669    0.0000 C   0  0  0  0  0  0  0  0  0
   -0.7611   -1.0424    0.0000 C   0  0  0  0  0  0  0  0  0
   -0.0941   -4.4711    0.0000 C   0  0  0  0  0  0  0  0  0
    0.3448   -5.1697    0.0000 C   0  0  0  0  0  0  0  0  0
    1.1692   -5.1388    0.0000 C   0  0  0  0  0  0  0  0  0
    1.5547   -4.4094    0.0000 C   0  0  0  0  0  0  0  0  0
    3.5221   -2.1065    0.0000 C   0  0  0  0  0  0  0  0  0
    4.1055   -2.6899    0.0000 N   0  0  0  0  0  0  0  0  0
    4.1055   -3.5149    0.0000 O   0  0  0  0  0  0  0  0  0
    4.9305   -3.5149    0.0000 C   0  0  0  0  0  0  0  0  0
    4.9305   -2.6899    0.0000 C   0  0  0  0  0  0  0  0  0
    5.6449   -2.2774    0.0000 C   0  0  0  0  0  0  0  0  0
    6.3594   -2.6899    0.0000 C   0  0  0  0  0  0  0  0  0
    6.3594   -3.5149    0.0000 C   0  0  0  0  0  0  0  0  0
    5.6449   -3.9274    0.0000 C   0  0  0  0  0  0  0  0  0
    7.0739   -2.2774    0.0000 C   0  0  0  0  0  0  0  0  0
    7.0739   -1.4524    0.0000 C   0  0  0  0  0  0  0  0  0
    7.7883   -1.0399    0.0000 C   0  0  0  0  0  0  0  0  0
    8.5028   -1.4524    0.0000 C   0  0  0  0  0  0  0  0  0
    8.5028   -2.2774    0.0000 C   0  0  0  0  0  0  0  0  0
    7.7883   -2.6899    0.0000 C   0  0  0  0  0  0  0  0  0
  1  2  1  0  0  0  0
  2  3  4  0  0  0  0
  2 15  4  0  0  0  0
  3  4  4  0  0  0  0
  4  5  1  0  0  0  0
  4 13  4  0  0  0  0
  5  6  1  0  0  0  0
  5  9  1  0  0  0  0
  6  7  1  0  0  0  0
  7  8  1  0  0  0  0
  7 20  1  0  0  0  0
  8  9  1  0  0  0  0
  9 10  1  0  0  0  0
 10 11  4  0  0  0  0
 10 19  4  0  0  0  0
 11 12  1  0  0  0  0
 11 16  4  0  0  0  0
 12 13  1  0  0  0  0
 13 14  4  0  0  0  0
 14 15  4  0  0  0  0
 16 17  4  0  0  0  0
 17 18  4  0  0  0  0
 18 19  4  0  0  0  0
 20 21  1  0  0  0  0
 21 22  4  0  0  0  0
 21 24  4  0  0  0  0
 22 23  4  0  0  0  0
 23 24  4  0  0  0  0
 23 28  4  0  0  0  0
 24 25  4  0  0  0  0
 25 26  4  0  0  0  0
 26 27  4  0  0  0  0
 26 29  1  0  0  0  0
 27 28  4  0  0  0  0
 29 30  4  0  0  0  0
 29 34  4  0  0  0  0
 30 31  4  0  0  0  0
 31 32  4  0  0  0  0
 32 33  4  0  0  0  0
 33 34  4  0  0  0  0
M  END
>  <Name_Molregno>
326181

>  <5-HT2A>
6.51

>  <5-HT2C>
6.74

$$$$
326213
  Marvin  02231216192D 0   1.00000     0.00000     0

 31 36  0  0  1  0  0  0  0  0999 V2000
    0.0477    0.1869    0.0000 Br  0  0  0  0  0  0  0  0  0
    0.0169   -0.6375    0.0000 C   0  0  0  0  0  0  0  0  0
    0.7154   -1.0764    0.0000 C   0  0  0  0  0  0  0  0  0
    0.6846   -1.9009    0.0000 C   0  0  0  0  0  0  0  0  0
    1.4407   -2.2308    0.0000 C   0  0  0  0  0  0  0  0  0
    2.1326   -1.7814    0.0000 O   0  0  0  0  0  0  0  0  0
    2.7738   -2.3006    0.0000 C   0  0  0  0  0  0  0  0  0
    2.4781   -3.0708    0.0000 C   0  0  0  0  0  0  0  0  0
    1.6542   -3.0277    0.0000 C   0  0  0  0  0  0  0  0  0
    1.1643   -3.6915    0.0000 C   0  0  0  0  0  0  0  0  0
    0.3399   -3.7223    0.0000 C   0  0  0  0  0  0  0  0  0
   -0.1982   -3.0970    0.0000 O   0  0  0  0  0  0  0  0  0
   -0.0448   -2.2864    0.0000 C   0  0  0  0  0  0  0  0  0
   -0.7434   -1.8474    0.0000 C   0  0  0  0  0  0  0  0  0
   -0.7125   -1.0230    0.0000 C   0  0  0  0  0  0  0  0  0
   -0.0456   -4.4517    0.0000 C   0  0  0  0  0  0  0  0  0
    0.3933   -5.1502    0.0000 C   0  0  0  0  0  0  0  0  0
    1.2178   -5.1194    0.0000 C   0  0  0  0  0  0  0  0  0
    1.6033   -4.3900    0.0000 C   0  0  0  0  0  0  0  0  0
    3.5707   -2.0871    0.0000 C   0  0  0  0  0  0  0  0  0
    4.1540   -2.6705    0.0000 N   0  0  0  0  0  0  0  0  0
    4.1540   -3.4955    0.0000 O   0  0  0  0  0  0  0  0  0
    4.9790   -3.4955    0.0000 C   0  0  0  0  0  0  0  0  0
    4.9790   -2.6705    0.0000 C   0  0  0  0  0  0  0  0  0
    5.6935   -2.2580    0.0000 C   0  0  0  0  0  0  0  0  0
    6.4080   -2.6705    0.0000 C   0  0  0  0  0  0  0  0  0
    7.1224   -2.2580    0.0000 N   0  0  0  0  0  0  0  0  0
    7.1224   -1.4330    0.0000 C   0  0  0  0  0  0  0  0  0
    7.8369   -2.6705    0.0000 C   0  0  0  0  0  0  0  0  0
    6.4080   -3.4955    0.0000 C   0  0  0  0  0  0  0  0  0
    5.6935   -3.9080    0.0000 C   0  0  0  0  0  0  0  0  0
  1  2  1  0  0  0  0
  2  3  4  0  0  0  0
  2 15  4  0  0  0  0
  3  4  4  0  0  0  0
  4  5  1  0  0  0  0
  4 13  4  0  0  0  0
  5  6  1  0  0  0  0
  5  9  1  0  0  0  0
  6  7  1  0  0  0  0
  7  8  1  0  0  0  0
  7 20  1  0  0  0  0
  8  9  1  0  0  0  0
  9 10  1  0  0  0  0
 10 11  4  0  0  0  0
 10 19  4  0  0  0  0
 11 12  1  0  0  0  0
 11 16  4  0  0  0  0
 12 13  1  0  0  0  0
 13 14  4  0  0  0  0
 14 15  4  0  0  0  0
 16 17  4  0  0  0  0
 17 18  4  0  0  0  0
 18 19  4  0  0  0  0
 20 21  1  0  0  0  0
 21 22  4  0  0  0  0
 21 24  4  0  0  0  0
 22 23  4  0  0  0  0
 23 24  4  0  0  0  0
 23 31  4  0  0  0  0
 24 25  4  0  0  0  0
 25 26  4  0  0  0  0
 26 27  1  0  0  0  0
 26 30  4  0  0  0  0
 27 28  1  0  0  0  0
 27 29  1  0  0  0  0
 30 31  4  0  0  0  0
M  END
>  <Name_Molregno>
326213

>  <5-HT2A>
7.02

>  <5-HT2C>
6.8

$$$$
326289
  Marvin  02231216192D 0   1.00000     0.00000     0

 33 39  0  0  1  0  0  0  0  0999 V2000
    0.4696    0.7892    0.0000 Br  0  0  0  0  0  0  0  0  0
    0.4387   -0.0352    0.0000 C   0  0  0  0  0  0  0  0  0
    1.1373   -0.4741    0.0000 C   0  0  0  0  0  0  0  0  0
    1.1064   -1.2986    0.0000 C   0  0  0  0  0  0  0  0  0
    1.8626   -1.6285    0.0000 C   0  0  0  0  0  0  0  0  0
    2.5545   -1.1791    0.0000 O   0  0  0  0  0  0  0  0  0
    3.1956   -1.6983    0.0000 C   0  0  0  0  0  0  0  0  0
    2.9000   -2.4685    0.0000 C   0  0  0  0  0  0  0  0  0
    2.0761   -2.4254    0.0000 C   0  0  0  0  0  0  0  0  0
    1.5862   -3.0892    0.0000 C   0  0  0  0  0  0  0  0  0
    0.7618   -3.1200    0.0000 C   0  0  0  0  0  0  0  0  0
    0.2236   -2.4947    0.0000 O   0  0  0  0  0  0  0  0  0
    0.3770   -1.6841    0.0000 C   0  0  0  0  0  0  0  0  0
   -0.3215   -1.2451    0.0000 C   0  0  0  0  0  0  0  0  0
   -0.2907   -0.4207    0.0000 C   0  0  0  0  0  0  0  0  0
    0.3763   -3.8494    0.0000 C   0  0  0  0  0  0  0  0  0
    0.8152   -4.5479    0.0000 C   0  0  0  0  0  0  0  0  0
    1.6396   -4.5171    0.0000 C   0  0  0  0  0  0  0  0  0
    2.0251   -3.7877    0.0000 C   0  0  0  0  0  0  0  0  0
    3.9925   -1.4848    0.0000 C   0  0  0  0  0  0  0  0  0
    4.5759   -2.0682    0.0000 N   0  0  0  0  0  0  0  0  0
    4.5759   -2.8932    0.0000 O   0  0  0  0  0  0  0  0  0
    5.4009   -2.8932    0.0000 C   0  0  0  0  0  0  0  0  0
    5.4009   -2.0682    0.0000 C   0  0  0  0  0  0  0  0  0
    6.1153   -1.6557    0.0000 C   0  0  0  0  0  0  0  0  0
    6.8298   -2.0682    0.0000 C   0  0  0  0  0  0  0  0  0
    7.5443   -1.6557    0.0000 N   0  0  0  0  0  0  0  0  0
    7.7578   -0.8588    0.0000 C   0  0  0  0  0  0  0  0  0
    8.5547   -1.0723    0.0000 C   0  0  0  0  0  0  0  0  0
    8.3412   -1.8692    0.0000 C   0  0  0  0  0  0  0  0  0
    8.7537   -2.5837    0.0000 O   0  0  0  0  0  0  0  0  0
    6.8298   -2.8932    0.0000 C   0  0  0  0  0  0  0  0  0
    6.1153   -3.3057    0.0000 C   0  0  0  0  0  0  0  0  0
  1  2  1  0  0  0  0
  2  3  4  0  0  0  0
  2 15  4  0  0  0  0
  3  4  4  0  0  0  0
  4  5  1  0  0  0  0
  4 13  4  0  0  0  0
  5  6  1  0  0  0  0
  5  9  1  0  0  0  0
  6  7  1  0  0  0  0
  7  8  1  0  0  0  0
  7 20  1  0  0  0  0
  8  9  1  0  0  0  0
  9 10  1  0  0  0  0
 10 11  4  0  0  0  0
 10 19  4  0  0  0  0
 11 12  1  0  0  0  0
 11 16  4  0  0  0  0
 12 13  1  0  0  0  0
 13 14  4  0  0  0  0
 14 15  4  0  0  0  0
 16 17  4  0  0  0  0
 17 18  4  0  0  0  0
 18 19  4  0  0  0  0
 20 21  1  0  0  0  0
 21 22  4  0  0  0  0
 21 24  4  0  0  0  0
 22 23  4  0  0  0  0
 23 24  4  0  0  0  0
 23 33  4  0  0  0  0
 24 25  4  0  0  0  0
 25 26  4  0  0  0  0
 26 27  1  0  0  0  0
 26 32  4  0  0  0  0
 27 28  1  0  0  0  0
 27 30  1  0  0  0  0
 28 29  1  0  0  0  0
 29 30  1  0  0  0  0
 30 31  2  0  0  0  0
 32 33  4  0  0  0  0
M  END
>  <Name_Molregno>
326289

>  <5-HT2A>
6.51

>  <5-HT2C>
6.45

$$$$
326352
  Marvin  02231216192D 0   1.00000     0.00000     0

 29 34  0  0  1  0  0  0  0  0999 V2000
    0.0505    0.1675    0.0000 Br  0  0  0  0  0  0  0  0  0
    0.0197   -0.6569    0.0000 C   0  0  0  0  0  0  0  0  0
    0.7182   -1.0958    0.0000 C   0  0  0  0  0  0  0  0  0
    0.6874   -1.9202    0.0000 C   0  0  0  0  0  0  0  0  0
    1.4435   -2.2501    0.0000 C   0  0  0  0  0  0  0  0  0
    2.1354   -1.8008    0.0000 O   0  0  0  0  0  0  0  0  0
    2.7766   -2.3200    0.0000 C   0  0  0  0  0  0  0  0  0
    2.4809   -3.0902    0.0000 C   0  0  0  0  0  0  0  0  0
    1.6571   -3.0470    0.0000 C   0  0  0  0  0  0  0  0  0
    1.1672   -3.7108    0.0000 C   0  0  0  0  0  0  0  0  0
    0.3427   -3.7417    0.0000 C   0  0  0  0  0  0  0  0  0
   -0.1954   -3.1164    0.0000 O   0  0  0  0  0  0  0  0  0
   -0.0420   -2.3057    0.0000 C   0  0  0  0  0  0  0  0  0
   -0.7406   -1.8668    0.0000 C   0  0  0  0  0  0  0  0  0
   -0.7097   -1.0424    0.0000 C   0  0  0  0  0  0  0  0  0
   -0.0427   -4.4711    0.0000 C   0  0  0  0  0  0  0  0  0
    0.3962   -5.1696    0.0000 C   0  0  0  0  0  0  0  0  0
    1.2206   -5.1388    0.0000 C   0  0  0  0  0  0  0  0  0
    1.6061   -4.4094    0.0000 C   0  0  0  0  0  0  0  0  0
    3.5735   -2.1065    0.0000 C   0  0  0  0  0  0  0  0  0
    4.1568   -2.6898    0.0000 N   0  0  0  0  0  0  0  0  0
    4.1568   -3.5148    0.0000 O   0  0  0  0  0  0  0  0  0
    4.9818   -3.5148    0.0000 C   0  0  0  0  0  0  0  0  0
    4.9818   -2.6898    0.0000 C   0  0  0  0  0  0  0  0  0
    5.6963   -2.2773    0.0000 C   0  0  0  0  0  0  0  0  0
    6.4108   -2.6898    0.0000 C   0  0  0  0  0  0  0  0  0
    6.4108   -3.5148    0.0000 C   0  0  0  0  0  0  0  0  0
    5.6963   -3.9273    0.0000 C   0  0  0  0  0  0  0  0  0
    7.1253   -2.2773    0.0000 C   0  0  0  0  0  0  0  0  0
  1  2  1  0  0  0  0
  2  3  4  0  0  0  0
  2 15  4  0  0  0  0
  3  4  4  0  0  0  0
  4  5  1  0  0  0  0
  4 13  4  0  0  0  0
  5  6  1  0  0  0  0
  5  9  1  0  0  0  0
  6  7  1  0  0  0  0
  7  8  1  0  0  0  0
  7 20  1  0  0  0  0
  8  9  1  0  0  0  0
  9 10  1  0  0  0  0
 10 11  4  0  0  0  0
 10 19  4  0  0  0  0
 11 12  1  0  0  0  0
 11 16  4  0  0  0  0
 12 13  1  0  0  0  0
 13 14  4  0  0  0  0
 14 15  4  0  0  0  0
 16 17  4  0  0  0  0
 17 18  4  0  0  0  0
 18 19  4  0  0  0  0
 20 21  1  0  0  0  0
 21 22  4  0  0  0  0
 21 24  4  0  0  0  0
 22 23  4  0  0  0  0
 23 24  4  0  0  0  0
 23 28  4  0  0  0  0
 24 25  4  0  0  0  0
 25 26  4  0  0  0  0
 26 27  4  0  0  0  0
 26 29  1  0  0  0  0
 27 28  4  0  0  0  0
M  END
>  <Name_Molregno>
326352

>  <5-HT2A>
7.44

>  <5-HT2C>
7.24

$$$$
326409
  Marvin  02231216192D 0   1.00000     0.00000     0

 24 27  0  0  1  0  0  0  0  0999 V2000
   -0.6112   -0.0838    0.0000 O   0  0  0  0  0  0  0  0  0
   -0.3563   -0.8685    0.0000 C   0  0  0  0  0  0  0  0  0
    0.4687   -0.8685    0.0000 C   0  0  0  0  0  0  0  0  0
    0.7237   -0.0838    0.0000 C   0  0  0  0  0  0  0  0  0
    0.0562    0.4011    0.0000 C   0  0  0  0  0  0  0  0  0
    0.0562    1.2261    0.0000 C   0  0  0  0  0  0  0  0  0
    0.7707    1.6386    0.0000 N   0  0  0  0  0  0  0  0  0
    0.7707    2.4636    0.0000 C   0  0  0  0  0  0  0  0  0
    1.4852    1.2261    0.0000 C   0  0  0  0  0  0  0  0  0
    0.9831   -1.5135    0.0000 C   0  0  0  0  0  0  0  0  0
    0.7995   -2.3178    0.0000 C   0  0  0  0  0  0  0  0  0
    0.0562   -2.6757    0.0000 O   0  0  0  0  0  0  0  0  0
   -0.6871   -2.3178    0.0000 C   0  0  0  0  0  0  0  0  0
   -0.8707   -1.5135    0.0000 C   0  0  0  0  0  0  0  0  0
   -1.6590   -1.2703    0.0000 C   0  0  0  0  0  0  0  0  0
   -2.2638   -1.8314    0.0000 C   0  0  0  0  0  0  0  0  0
   -3.0521   -1.5883    0.0000 O   0  0  0  0  0  0  0  0  0
   -3.6569   -2.1494    0.0000 C   0  0  0  0  0  0  0  0  0
   -2.0802   -2.6358    0.0000 C   0  0  0  0  0  0  0  0  0
   -1.2918   -2.8789    0.0000 C   0  0  0  0  0  0  0  0  0
    1.4043   -2.8789    0.0000 C   0  0  0  0  0  0  0  0  0
    2.1926   -2.6358    0.0000 C   0  0  0  0  0  0  0  0  0
    2.3762   -1.8314    0.0000 C   0  0  0  0  0  0  0  0  0
    1.7714   -1.2703    0.0000 C   0  0  0  0  0  0  0  0  0
  1  2  1  0  0  0  0
  1  5  1  0  0  0  0
  2  3  1  0  0  0  0
  2 14  1  0  0  0  0
  3  4  1  0  0  0  0
  3 10  1  0  0  0  0
  4  5  1  0  0  0  0
  5  6  1  0  0  0  0
  6  7  1  0  0  0  0
  7  8  1  0  0  0  0
  7  9  1  0  0  0  0
 10 11  4  0  0  0  0
 10 24  4  0  0  0  0
 11 12  1  0  0  0  0
 11 21  4  0  0  0  0
 12 13  1  0  0  0  0
 13 14  4  0  0  0  0
 13 20  4  0  0  0  0
 14 15  4  0  0  0  0
 15 16  4  0  0  0  0
 16 17  1  0  0  0  0
 16 19  4  0  0  0  0
 17 18  1  0  0  0  0
 19 20  4  0  0  0  0
 21 22  4  0  0  0  0
 22 23  4  0  0  0  0
 23 24  4  0  0  0  0
M  END
>  <Name_Molregno>
326409

>  <5-HT2A>
7.18

>  <5-HT2C>
6.89

$$$$
327069
  Marvin  02231216192D 0   1.00000     0.00000     0

 31 34  0  0  0  0  0  0  0  0999 V2000
    4.9165    5.1026    0.0000 Cl  0  0  0  0  0  0  0  0  0
    4.9165    4.2776    0.0000 C   0  0  0  0  0  0  0  0  0
    5.6310    3.8651    0.0000 C   0  0  0  0  0  0  0  0  0
    5.6310    3.0401    0.0000 C   0  0  0  0  0  0  0  0  0
    4.9165    2.6276    0.0000 C   0  0  0  0  0  0  0  0  0
    4.9165    1.8026    0.0000 N   0  0  0  0  0  0  0  0  0
    5.6310    1.3901    0.0000 C   0  0  0  0  0  0  0  0  0
    5.6310    0.5651    0.0000 C   0  0  0  0  0  0  0  0  0
    4.9165    0.1526    0.0000 N   0  0  0  0  0  0  0  0  0
    4.2021    0.5651    0.0000 C   0  0  0  0  0  0  0  0  0
    4.2021    1.3901    0.0000 C   0  0  0  0  0  0  0  0  0
    4.9165   -0.6724    0.0000 C   0  0  0  0  0  0  0  0  0
    4.2021   -1.0849    0.0000 O   0  0  0  0  0  0  0  0  0
    5.6310   -1.0849    0.0000 N   0  0  0  0  0  0  0  0  0
    5.6310   -1.9099    0.0000 C   0  0  0  0  0  0  0  0  0
    6.3455   -2.3224    0.0000 C   0  0  0  0  0  0  0  0  0
    6.3455   -3.1474    0.0000 C   0  0  0  0  0  0  0  0  0
    7.0599   -3.5599    0.0000 N   0  0  0  0  0  0  0  0  0
    7.7744   -3.1474    0.0000 C   0  0  0  0  0  0  0  0  0
    8.4889   -3.5599    0.0000 C   0  0  0  0  0  0  0  0  0
    8.4889   -4.3849    0.0000 N   0  0  0  0  0  0  0  0  0
    7.7744   -4.7974    0.0000 C   0  0  0  0  0  0  0  0  0
    7.0599   -4.3849    0.0000 C   0  0  0  0  0  0  0  0  0
    9.2034   -4.7974    0.0000 C   0  0  0  0  0  0  0  0  0
    5.6310   -3.5599    0.0000 C   0  0  0  0  0  0  0  0  0
    5.6310   -4.3849    0.0000 O   0  0  0  0  0  0  0  0  0
    4.9165   -4.7974    0.0000 C   0  0  0  0  0  0  0  0  0
    4.9165   -3.1474    0.0000 C   0  0  0  0  0  0  0  0  0
    4.9165   -2.3224    0.0000 C   0  0  0  0  0  0  0  0  0
    4.2021    3.0401    0.0000 C   0  0  0  0  0  0  0  0  0
    4.2021    3.8651    0.0000 C   0  0  0  0  0  0  0  0  0
  1  2  1  0  0  0  0
  2  3  4  0  0  0  0
  2 31  4  0  0  0  0
  3  4  4  0  0  0  0
  4  5  4  0  0  0  0
  5  6  1  0  0  0  0
  5 30  4  0  0  0  0
  6  7  1  0  0  0  0
  6 11  1  0  0  0  0
  7  8  1  0  0  0  0
  8  9  1  0  0  0  0
  9 10  1  0  0  0  0
  9 12  1  0  0  0  0
 10 11  1  0  0  0  0
 12 13  2  0  0  0  0
 12 14  1  0  0  0  0
 14 15  1  0  0  0  0
 15 16  4  0  0  0  0
 15 29  4  0  0  0  0
 16 17  4  0  0  0  0
 17 18  1  0  0  0  0
 17 25  4  0  0  0  0
 18 19  1  0  0  0  0
 18 23  1  0  0  0  0
 19 20  1  0  0  0  0
 20 21  1  0  0  0  0
 21 22  1  0  0  0  0
 21 24  1  0  0  0  0
 22 23  1  0  0  0  0
 25 26  1  0  0  0  0
 25 28  4  0  0  0  0
 26 27  1  0  0  0  0
 28 29  4  0  0  0  0
 30 31  4  0  0  0  0
M  END
>  <Name_Molregno>
327069

>  <5-HT1A>
7.28

>  <5-HT1B>
8.74

>  <5-HT1D>
8.19

>  <5-HT2A>
6

>  <5-HT2C>
6.57

>  <5-HT6>
5.29

>  <5-HT7>
5

>  <DOPAMINE D1>
5

>  <DOPAMINE D2>
5

>  <DOPAMINE D3>
5

>  <DOPAMINE D4>
5

>  <DOPAMINE D5>
5

>  <HISTAMINE H1>
5

>  <Muscarinic acetylcholine receptor M1>
5

>  <Muscarinic acetylcholine receptor M2>
5

>  <Muscarinic acetylcholine receptor M3>
5

>  <Muscarinic acetylcholine receptor M4>
5

>  <Muscarinic acetylcholine receptor M5>
5

$$$$
327077
  Marvin  02231216192D 0   1.00000     0.00000     0

 31 34  0  0  0  0  0  0  0  0999 V2000
    4.9165    5.1026    0.0000 F   0  0  0  0  0  0  0  0  0
    4.9165    4.2776    0.0000 C   0  0  0  0  0  0  0  0  0
    5.6310    3.8651    0.0000 C   0  0  0  0  0  0  0  0  0
    5.6310    3.0401    0.0000 C   0  0  0  0  0  0  0  0  0
    4.9165    2.6276    0.0000 C   0  0  0  0  0  0  0  0  0
    4.9165    1.8026    0.0000 N   0  0  0  0  0  0  0  0  0
    5.6310    1.3901    0.0000 C   0  0  0  0  0  0  0  0  0
    5.6310    0.5651    0.0000 C   0  0  0  0  0  0  0  0  0
    4.9165    0.1526    0.0000 N   0  0  0  0  0  0  0  0  0
    4.2021    0.5651    0.0000 C   0  0  0  0  0  0  0  0  0
    4.2021    1.3901    0.0000 C   0  0  0  0  0  0  0  0  0
    4.9165   -0.6724    0.0000 C   0  0  0  0  0  0  0  0  0
    4.2021   -1.0849    0.0000 O   0  0  0  0  0  0  0  0  0
    5.6310   -1.0849    0.0000 N   0  0  0  0  0  0  0  0  0
    5.6310   -1.9099    0.0000 C   0  0  0  0  0  0  0  0  0
    6.3455   -2.3224    0.0000 C   0  0  0  0  0  0  0  0  0
    6.3455   -3.1474    0.0000 C   0  0  0  0  0  0  0  0  0
    7.0599   -3.5599    0.0000 N   0  0  0  0  0  0  0  0  0
    7.7744   -3.1474    0.0000 C   0  0  0  0  0  0  0  0  0
    8.4889   -3.5599    0.0000 C   0  0  0  0  0  0  0  0  0
    8.4889   -4.3849    0.0000 N   0  0  0  0  0  0  0  0  0
    7.7744   -4.7974    0.0000 C   0  0  0  0  0  0  0  0  0
    7.0599   -4.3849    0.0000 C   0  0  0  0  0  0  0  0  0
    9.2034   -4.7974    0.0000 C   0  0  0  0  0  0  0  0  0
    5.6310   -3.5599    0.0000 C   0  0  0  0  0  0  0  0  0
    5.6310   -4.3849    0.0000 O   0  0  0  0  0  0  0  0  0
    4.9165   -4.7974    0.0000 C   0  0  0  0  0  0  0  0  0
    4.9165   -3.1474    0.0000 C   0  0  0  0  0  0  0  0  0
    4.9165   -2.3224    0.0000 C   0  0  0  0  0  0  0  0  0
    4.2021    3.0401    0.0000 C   0  0  0  0  0  0  0  0  0
    4.2021    3.8651    0.0000 C   0  0  0  0  0  0  0  0  0
  1  2  1  0  0  0  0
  2  3  4  0  0  0  0
  2 31  4  0  0  0  0
  3  4  4  0  0  0  0
  4  5  4  0  0  0  0
  5  6  1  0  0  0  0
  5 30  4  0  0  0  0
  6  7  1  0  0  0  0
  6 11  1  0  0  0  0
  7  8  1  0  0  0  0
  8  9  1  0  0  0  0
  9 10  1  0  0  0  0
  9 12  1  0  0  0  0
 10 11  1  0  0  0  0
 12 13  2  0  0  0  0
 12 14  1  0  0  0  0
 14 15  1  0  0  0  0
 15 16  4  0  0  0  0
 15 29  4  0  0  0  0
 16 17  4  0  0  0  0
 17 18  1  0  0  0  0
 17 25  4  0  0  0  0
 18 19  1  0  0  0  0
 18 23  1  0  0  0  0
 19 20  1  0  0  0  0
 20 21  1  0  0  0  0
 21 22  1  0  0  0  0
 21 24  1  0  0  0  0
 22 23  1  0  0  0  0
 25 26  1  0  0  0  0
 25 28  4  0  0  0  0
 26 27  1  0  0  0  0
 28 29  4  0  0  0  0
 30 31  4  0  0  0  0
M  END
>  <Name_Molregno>
327077

>  <5-HT1A>
5.97

>  <5-HT1B>
7.42

>  <5-HT1D>
6.77

>  <5-HT2A>
5.35

>  <5-HT2C>
5

>  <5-HT6>
5

>  <5-HT7>
5

>  <DOPAMINE D1>
5

>  <DOPAMINE D2>
5

>  <DOPAMINE D3>
5

>  <DOPAMINE D4>
5

>  <DOPAMINE D5>
5

>  <HISTAMINE H1>
5

>  <Muscarinic acetylcholine receptor M1>
5

>  <Muscarinic acetylcholine receptor M2>
5

>  <Muscarinic acetylcholine receptor M3>
5

>  <Muscarinic acetylcholine receptor M4>
5

>  <Muscarinic acetylcholine receptor M5>
5

$$$$
327082
  Marvin  02231216192D 0   1.00000     0.00000     0

 36 40  0  0  0  0  0  0  0  0999 V2000
   -4.3490    4.5404    0.0000 O   0  0  0  0  0  0  0  0  0
   -5.0635    4.9529    0.0000 C   0  0  0  0  0  0  0  0  0
   -4.3490    3.7154    0.0000 C   0  0  0  0  0  0  0  0  0
   -3.6345    3.3029    0.0000 C   0  0  0  0  0  0  0  0  0
   -3.6345    2.4779    0.0000 C   0  0  0  0  0  0  0  0  0
   -4.3490    2.0654    0.0000 C   0  0  0  0  0  0  0  0  0
   -4.3490    1.2404    0.0000 N   0  0  0  0  0  0  0  0  0
   -3.6345    0.8279    0.0000 C   0  0  0  0  0  0  0  0  0
   -2.9201    1.2404    0.0000 O   0  0  0  0  0  0  0  0  0
   -3.6345    0.0029    0.0000 N   0  0  0  0  0  0  0  0  0
   -2.9201   -0.4096    0.0000 C   0  0  0  0  0  0  0  0  0
   -2.9201   -1.2346    0.0000 C   0  0  0  0  0  0  0  0  0
   -3.6345   -1.6471    0.0000 N   0  0  0  0  0  0  0  0  0
   -4.3490   -1.2346    0.0000 C   0  0  0  0  0  0  0  0  0
   -4.3490   -0.4096    0.0000 C   0  0  0  0  0  0  0  0  0
   -3.6345   -2.4721    0.0000 C   0  0  0  0  0  0  0  0  0
   -2.9201   -2.8846    0.0000 C   0  0  0  0  0  0  0  0  0
   -2.9201   -3.7096    0.0000 C   0  0  0  0  0  0  0  0  0
   -3.6345   -4.1221    0.0000 C   0  0  0  0  0  0  0  0  0
   -4.3490   -3.7096    0.0000 C   0  0  0  0  0  0  0  0  0
   -4.3490   -2.8846    0.0000 C   0  0  0  0  0  0  0  0  0
   -3.6345   -4.9471    0.0000 C   0  0  0  0  0  0  0  0  0
   -2.9201   -5.3596    0.0000 C   0  0  0  0  0  0  0  0  0
   -2.9201   -6.1846    0.0000 C   0  0  0  0  0  0  0  0  0
   -3.6345   -6.5971    0.0000 C   0  0  0  0  0  0  0  0  0
   -4.3490   -6.1846    0.0000 C   0  0  0  0  0  0  0  0  0
   -4.3490   -5.3596    0.0000 C   0  0  0  0  0  0  0  0  0
   -5.0635    2.4779    0.0000 C   0  0  0  0  0  0  0  0  0
   -5.0635    3.3029    0.0000 C   0  0  0  0  0  0  0  0  0
   -5.7779    3.7154    0.0000 N   0  0  0  0  0  0  0  0  0
   -6.4924    3.3029    0.0000 C   0  0  0  0  0  0  0  0  0
   -7.2069    3.7154    0.0000 C   0  0  0  0  0  0  0  0  0
   -7.2069    4.5404    0.0000 N   0  0  0  0  0  0  0  0  0
   -6.4924    4.9529    0.0000 C   0  0  0  0  0  0  0  0  0
   -5.7779    4.5404    0.0000 C   0  0  0  0  0  0  0  0  0
   -7.9214    4.9529    0.0000 C   0  0  0  0  0  0  0  0  0
  1  2  1  0  0  0  0
  1  3  1  0  0  0  0
  3  4  4  0  0  0  0
  3 29  4  0  0  0  0
  4  5  4  0  0  0  0
  5  6  4  0  0  0  0
  6  7  1  0  0  0  0
  6 28  4  0  0  0  0
  7  8  1  0  0  0  0
  8  9  2  0  0  0  0
  8 10  1  0  0  0  0
 10 11  1  0  0  0  0
 10 15  1  0  0  0  0
 11 12  1  0  0  0  0
 12 13  1  0  0  0  0
 13 14  1  0  0  0  0
 13 16  1  0  0  0  0
 14 15  1  0  0  0  0
 16 17  4  0  0  0  0
 16 21  4  0  0  0  0
 17 18  4  0  0  0  0
 18 19  4  0  0  0  0
 19 20  4  0  0  0  0
 19 22  1  0  0  0  0
 20 21  4  0  0  0  0
 22 23  4  0  0  0  0
 22 27  4  0  0  0  0
 23 24  4  0  0  0  0
 24 25  4  0  0  0  0
 25 26  4  0  0  0  0
 26 27  4  0  0  0  0
 28 29  4  0  0  0  0
 29 30  1  0  0  0  0
 30 31  1  0  0  0  0
 30 35  1  0  0  0  0
 31 32  1  0  0  0  0
 32 33  1  0  0  0  0
 33 34  1  0  0  0  0
 33 36  1  0  0  0  0
 34 35  1  0  0  0  0
M  END
>  <Name_Molregno>
327082

>  <5-HT1A>
6.39

>  <5-HT1B>
7.86

>  <5-HT1D>
6.68

>  <5-HT2A>
6.77

>  <5-HT2C>
8.19

>  <5-HT6>
5.84

>  <5-HT7>
5

>  <DOPAMINE D1>
5

>  <DOPAMINE D2>
5

>  <DOPAMINE D3>
5

>  <DOPAMINE D4>
5

>  <DOPAMINE D5>
5

>  <HISTAMINE H1>
5

>  <Muscarinic acetylcholine receptor M1>
5

>  <Muscarinic acetylcholine receptor M2>
5

>  <Muscarinic acetylcholine receptor M3>
5

>  <Muscarinic acetylcholine receptor M4>
5

>  <Muscarinic acetylcholine receptor M5>
5

$$$$
327083
  Marvin  02231216192D 0   1.00000     0.00000     0

 34 37  0  0  0  0  0  0  0  0999 V2000
    5.2566    5.4075    0.0000 F   0  0  0  0  0  0  0  0  0
    5.2566    4.5825    0.0000 C   0  0  0  0  0  0  0  0  0
    4.4316    4.5825    0.0000 F   0  0  0  0  0  0  0  0  0
    6.0816    4.5825    0.0000 F   0  0  0  0  0  0  0  0  0
    5.2566    3.7575    0.0000 C   0  0  0  0  0  0  0  0  0
    5.9711    3.3450    0.0000 C   0  0  0  0  0  0  0  0  0
    5.9711    2.5200    0.0000 C   0  0  0  0  0  0  0  0  0
    5.2566    2.1075    0.0000 C   0  0  0  0  0  0  0  0  0
    5.2566    1.2825    0.0000 N   0  0  0  0  0  0  0  0  0
    5.9711    0.8700    0.0000 C   0  0  0  0  0  0  0  0  0
    5.9711    0.0450    0.0000 C   0  0  0  0  0  0  0  0  0
    5.2566   -0.3675    0.0000 N   0  0  0  0  0  0  0  0  0
    4.5421    0.0450    0.0000 C   0  0  0  0  0  0  0  0  0
    4.5421    0.8700    0.0000 C   0  0  0  0  0  0  0  0  0
    5.2566   -1.1925    0.0000 C   0  0  0  0  0  0  0  0  0
    4.5421   -1.6050    0.0000 O   0  0  0  0  0  0  0  0  0
    5.9711   -1.6050    0.0000 N   0  0  0  0  0  0  0  0  0
    5.9711   -2.4300    0.0000 C   0  0  0  0  0  0  0  0  0
    6.6855   -2.8425    0.0000 C   0  0  0  0  0  0  0  0  0
    6.6855   -3.6675    0.0000 C   0  0  0  0  0  0  0  0  0
    7.4000   -4.0800    0.0000 N   0  0  0  0  0  0  0  0  0
    8.1145   -3.6675    0.0000 C   0  0  0  0  0  0  0  0  0
    8.8289   -4.0800    0.0000 C   0  0  0  0  0  0  0  0  0
    8.8289   -4.9050    0.0000 N   0  0  0  0  0  0  0  0  0
    8.1145   -5.3175    0.0000 C   0  0  0  0  0  0  0  0  0
    7.4000   -4.9050    0.0000 C   0  0  0  0  0  0  0  0  0
    9.5434   -5.3175    0.0000 C   0  0  0  0  0  0  0  0  0
    5.9711   -4.0800    0.0000 C   0  0  0  0  0  0  0  0  0
    5.9711   -4.9050    0.0000 O   0  0  0  0  0  0  0  0  0
    5.2566   -5.3175    0.0000 C   0  0  0  0  0  0  0  0  0
    5.2566   -3.6675    0.0000 C   0  0  0  0  0  0  0  0  0
    5.2566   -2.8425    0.0000 C   0  0  0  0  0  0  0  0  0
    4.5421    2.5200    0.0000 C   0  0  0  0  0  0  0  0  0
    4.5421    3.3450    0.0000 C   0  0  0  0  0  0  0  0  0
  1  2  1  0  0  0  0
  2  3  1  0  0  0  0
  2  4  1  0  0  0  0
  2  5  1  0  0  0  0
  5  6  4  0  0  0  0
  5 34  4  0  0  0  0
  6  7  4  0  0  0  0
  7  8  4  0  0  0  0
  8  9  1  0  0  0  0
  8 33  4  0  0  0  0
  9 10  1  0  0  0  0
  9 14  1  0  0  0  0
 10 11  1  0  0  0  0
 11 12  1  0  0  0  0
 12 13  1  0  0  0  0
 12 15  1  0  0  0  0
 13 14  1  0  0  0  0
 15 16  2  0  0  0  0
 15 17  1  0  0  0  0
 17 18  1  0  0  0  0
 18 19  4  0  0  0  0
 18 32  4  0  0  0  0
 19 20  4  0  0  0  0
 20 21  1  0  0  0  0
 20 28  4  0  0  0  0
 21 22  1  0  0  0  0
 21 26  1  0  0  0  0
 22 23  1  0  0  0  0
 23 24  1  0  0  0  0
 24 25  1  0  0  0  0
 24 27  1  0  0  0  0
 25 26  1  0  0  0  0
 28 29  1  0  0  0  0
 28 31  4  0  0  0  0
 29 30  1  0  0  0  0
 31 32  4  0  0  0  0
 33 34  4  0  0  0  0
M  END
>  <Name_Molregno>
327083

>  <5-HT1A>
6.42

>  <5-HT1B>
7.55

>  <5-HT1D>
6.46

>  <5-HT2A>
6.21

>  <5-HT2C>
5.55

>  <5-HT6>
5.54

>  <5-HT7>
5

>  <DOPAMINE D1>
5

>  <DOPAMINE D2>
5

>  <DOPAMINE D3>
5

>  <DOPAMINE D4>
5

>  <DOPAMINE D5>
5

>  <HISTAMINE H1>
5

>  <Muscarinic acetylcholine receptor M1>
5

>  <Muscarinic acetylcholine receptor M2>
5

>  <Muscarinic acetylcholine receptor M3>
5

>  <Muscarinic acetylcholine receptor M4>
5

>  <Muscarinic acetylcholine receptor M5>
5

$$$$
327090
  Marvin  02231216192D 0   1.00000     0.00000     0

 32 35  0  0  0  0  0  0  0  0999 V2000
   -6.3746    6.5338    0.0000 S   0  0  0  0  0  0  0  0  0
   -7.0891    6.9463    0.0000 C   0  0  0  0  0  0  0  0  0
   -6.3746    5.7088    0.0000 C   0  0  0  0  0  0  0  0  0
   -5.6602    5.2963    0.0000 C   0  0  0  0  0  0  0  0  0
   -5.6602    4.4713    0.0000 C   0  0  0  0  0  0  0  0  0
   -6.3746    4.0588    0.0000 C   0  0  0  0  0  0  0  0  0
   -6.3746    3.2338    0.0000 N   0  0  0  0  0  0  0  0  0
   -5.6602    2.8213    0.0000 C   0  0  0  0  0  0  0  0  0
   -5.6602    1.9963    0.0000 C   0  0  0  0  0  0  0  0  0
   -6.3746    1.5838    0.0000 N   0  0  0  0  0  0  0  0  0
   -7.0891    1.9963    0.0000 C   0  0  0  0  0  0  0  0  0
   -7.0891    2.8213    0.0000 C   0  0  0  0  0  0  0  0  0
   -6.3746    0.7588    0.0000 C   0  0  0  0  0  0  0  0  0
   -7.0891    0.3463    0.0000 O   0  0  0  0  0  0  0  0  0
   -5.6602    0.3463    0.0000 N   0  0  0  0  0  0  0  0  0
   -5.6602   -0.4787    0.0000 C   0  0  0  0  0  0  0  0  0
   -4.9457   -0.8912    0.0000 C   0  0  0  0  0  0  0  0  0
   -4.9457   -1.7162    0.0000 C   0  0  0  0  0  0  0  0  0
   -4.2312   -2.1287    0.0000 N   0  0  0  0  0  0  0  0  0
   -3.5167   -1.7162    0.0000 C   0  0  0  0  0  0  0  0  0
   -2.8023   -2.1287    0.0000 C   0  0  0  0  0  0  0  0  0
   -2.8023   -2.9537    0.0000 N   0  0  0  0  0  0  0  0  0
   -3.5167   -3.3662    0.0000 C   0  0  0  0  0  0  0  0  0
   -4.2312   -2.9537    0.0000 C   0  0  0  0  0  0  0  0  0
   -2.0878   -3.3662    0.0000 C   0  0  0  0  0  0  0  0  0
   -5.6602   -2.1287    0.0000 C   0  0  0  0  0  0  0  0  0
   -5.6602   -2.9537    0.0000 O   0  0  0  0  0  0  0  0  0
   -6.3746   -3.3662    0.0000 C   0  0  0  0  0  0  0  0  0
   -6.3746   -1.7162    0.0000 C   0  0  0  0  0  0  0  0  0
   -6.3746   -0.8912    0.0000 C   0  0  0  0  0  0  0  0  0
   -7.0891    4.4713    0.0000 C   0  0  0  0  0  0  0  0  0
   -7.0891    5.2963    0.0000 C   0  0  0  0  0  0  0  0  0
  1  2  1  0  0  0  0
  1  3  1  0  0  0  0
  3  4  4  0  0  0  0
  3 32  4  0  0  0  0
  4  5  4  0  0  0  0
  5  6  4  0  0  0  0
  6  7  1  0  0  0  0
  6 31  4  0  0  0  0
  7  8  1  0  0  0  0
  7 12  1  0  0  0  0
  8  9  1  0  0  0  0
  9 10  1  0  0  0  0
 10 11  1  0  0  0  0
 10 13  1  0  0  0  0
 11 12  1  0  0  0  0
 13 14  2  0  0  0  0
 13 15  1  0  0  0  0
 15 16  1  0  0  0  0
 16 17  4  0  0  0  0
 16 30  4  0  0  0  0
 17 18  4  0  0  0  0
 18 19  1  0  0  0  0
 18 26  4  0  0  0  0
 19 20  1  0  0  0  0
 19 24  1  0  0  0  0
 20 21  1  0  0  0  0
 21 22  1  0  0  0  0
 22 23  1  0  0  0  0
 22 25  1  0  0  0  0
 23 24  1  0  0  0  0
 26 27  1  0  0  0  0
 26 29  4  0  0  0  0
 27 28  1  0  0  0  0
 29 30  4  0  0  0  0
 31 32  4  0  0  0  0
M  END
>  <Name_Molregno>
327090

>  <5-HT1A>
6.05

>  <5-HT1B>
7.78

>  <5-HT1D>
6.48

>  <5-HT2A>
5.87

>  <5-HT2C>
5.94

>  <5-HT6>
5

>  <5-HT7>
5

>  <DOPAMINE D1>
5

>  <DOPAMINE D2>
5

>  <DOPAMINE D3>
5

>  <DOPAMINE D4>
5

>  <DOPAMINE D5>
5

>  <HISTAMINE H1>
5

>  <Muscarinic acetylcholine receptor M1>
5

>  <Muscarinic acetylcholine receptor M2>
5

>  <Muscarinic acetylcholine receptor M3>
5

>  <Muscarinic acetylcholine receptor M4>
5

>  <Muscarinic acetylcholine receptor M5>
5

$$$$
327091
  Marvin  02231216192D 0   1.00000     0.00000     0

 32 35  0  0  0  0  0  0  0  0999 V2000
    3.7835    3.5848    0.0000 O   0  0  0  0  0  0  0  0  0
    3.0690    3.9973    0.0000 C   0  0  0  0  0  0  0  0  0
    3.7835    2.7598    0.0000 C   0  0  0  0  0  0  0  0  0
    4.4980    2.3473    0.0000 C   0  0  0  0  0  0  0  0  0
    4.4980    1.5223    0.0000 C   0  0  0  0  0  0  0  0  0
    3.7835    1.1098    0.0000 C   0  0  0  0  0  0  0  0  0
    3.7835    0.2848    0.0000 N   0  0  0  0  0  0  0  0  0
    4.4980   -0.1277    0.0000 C   0  0  0  0  0  0  0  0  0
    5.2124    0.2848    0.0000 O   0  0  0  0  0  0  0  0  0
    4.4980   -0.9527    0.0000 C   0  0  0  0  0  0  0  0  0
    5.2124   -1.3652    0.0000 C   0  0  0  0  0  0  0  0  0
    5.2124   -2.1902    0.0000 C   0  0  0  0  0  0  0  0  0
    4.4980   -2.6027    0.0000 N   0  0  0  0  0  0  0  0  0
    3.7835   -2.1902    0.0000 C   0  0  0  0  0  0  0  0  0
    3.7835   -1.3652    0.0000 C   0  0  0  0  0  0  0  0  0
    4.4980   -3.4277    0.0000 C   0  0  0  0  0  0  0  0  0
    5.2124   -3.8402    0.0000 C   0  0  0  0  0  0  0  0  0
    5.2124   -4.6652    0.0000 C   0  0  0  0  0  0  0  0  0
    4.4980   -5.0777    0.0000 C   0  0  0  0  0  0  0  0  0
    3.7835   -4.6652    0.0000 C   0  0  0  0  0  0  0  0  0
    3.7835   -3.8402    0.0000 C   0  0  0  0  0  0  0  0  0
    3.0690   -3.4277    0.0000 O   0  0  0  0  0  0  0  0  0
    2.3546   -3.8402    0.0000 C   0  0  0  0  0  0  0  0  0
    3.0690    1.5223    0.0000 C   0  0  0  0  0  0  0  0  0
    3.0690    2.3473    0.0000 C   0  0  0  0  0  0  0  0  0
    2.3546    2.7598    0.0000 N   0  0  0  0  0  0  0  0  0
    1.6401    2.3473    0.0000 C   0  0  0  0  0  0  0  0  0
    0.9256    2.7598    0.0000 C   0  0  0  0  0  0  0  0  0
    0.9256    3.5848    0.0000 N   0  0  0  0  0  0  0  0  0
    1.6401    3.9973    0.0000 C   0  0  0  0  0  0  0  0  0
    2.3546    3.5848    0.0000 C   0  0  0  0  0  0  0  0  0
    0.2111    3.9973    0.0000 C   0  0  0  0  0  0  0  0  0
  1  2  1  0  0  0  0
  1  3  1  0  0  0  0
  3  4  4  0  0  0  0
  3 25  4  0  0  0  0
  4  5  4  0  0  0  0
  5  6  4  0  0  0  0
  6  7  1  0  0  0  0
  6 24  4  0  0  0  0
  7  8  1  0  0  0  0
  8  9  2  0  0  0  0
  8 10  1  0  0  0  0
 10 11  1  0  0  0  0
 10 15  1  0  0  0  0
 11 12  1  0  0  0  0
 12 13  1  0  0  0  0
 13 14  1  0  0  0  0
 13 16  1  0  0  0  0
 14 15  1  0  0  0  0
 16 17  4  0  0  0  0
 16 21  4  0  0  0  0
 17 18  4  0  0  0  0
 18 19  4  0  0  0  0
 19 20  4  0  0  0  0
 20 21  4  0  0  0  0
 21 22  1  0  0  0  0
 22 23  1  0  0  0  0
 24 25  4  0  0  0  0
 25 26  1  0  0  0  0
 26 27  1  0  0  0  0
 26 31  1  0  0  0  0
 27 28  1  0  0  0  0
 28 29  1  0  0  0  0
 29 30  1  0  0  0  0
 29 32  1  0  0  0  0
 30 31  1  0  0  0  0
M  END
>  <Name_Molregno>
327091

>  <5-HT1A>
7.81

>  <5-HT1B>
8.01

>  <5-HT1D>
7.81

>  <5-HT2A>
5

>  <5-HT2C>
5

>  <DOPAMINE D1>
5

>  <DOPAMINE D2>
5

>  <DOPAMINE D3>
5

>  <DOPAMINE D4>
5

>  <DOPAMINE D5>
5

>  <HISTAMINE H1>
5

>  <Muscarinic acetylcholine receptor M1>
5

>  <Muscarinic acetylcholine receptor M2>
5

>  <Muscarinic acetylcholine receptor M3>
5

>  <Muscarinic acetylcholine receptor M4>
5

>  <Muscarinic acetylcholine receptor M5>
5

$$$$
329265
  Marvin  02231216192D 0   1.00000     0.00000     0

 31 35  0  0  1  0  0  0  0  0999 V2000
   -5.7354    5.8865    0.0000 F   0  0  0  0  0  0  0  0  0
   -6.2875    5.2734    0.0000 C   0  0  0  0  0  0  0  0  0
   -6.0325    4.4888    0.0000 C   0  0  0  0  0  0  0  0  0
   -6.5846    3.8757    0.0000 C   0  0  0  0  0  0  0  0  0
   -7.3915    4.0473    0.0000 C   0  0  0  0  0  0  0  0  0
   -7.8040    3.3328    0.0000 N   0  0  0  0  0  0  0  0  0
   -7.2520    2.7197    0.0000 C   0  0  0  0  0  0  0  0  0
   -6.4983    3.0552    0.0000 C   0  0  0  0  0  0  0  0  0
   -5.7838    2.6427    0.0000 C   0  0  0  0  0  0  0  0  0
   -5.7838    1.8177    0.0000 C   0  0  0  0  0  0  0  0  0
   -5.0694    1.4052    0.0000 C   0  0  0  0  0  0  0  0  0
   -5.0694    0.5802    0.0000 N   0  0  0  0  0  0  0  0  0
   -4.3549    0.1677    0.0000 C   0  0  0  0  0  0  0  0  0
   -4.3549   -0.6573    0.0000 C   0  0  0  0  0  0  0  0  0
   -5.0694   -1.0698    0.0000 N   0  0  0  0  0  0  0  0  0
   -5.7838   -0.6573    0.0000 C   0  0  0  0  0  0  0  0  0
   -5.7838    0.1677    0.0000 C   0  0  0  0  0  0  0  0  0
   -5.0694   -1.8948    0.0000 C   0  0  0  0  0  0  0  0  0
   -4.3549   -2.3073    0.0000 C   0  0  0  0  0  0  0  0  0
   -3.6404   -1.8948    0.0000 O   0  0  0  0  0  0  0  0  0
   -2.9260   -2.3073    0.0000 C   0  0  0  0  0  0  0  0  0
   -2.2115   -1.8948    0.0000 C   0  0  0  0  0  0  0  0  0
   -2.9260   -3.1323    0.0000 C   0  0  0  0  0  0  0  0  0
   -2.2115   -3.5448    0.0000 O   0  0  0  0  0  0  0  0  0
   -3.6404   -3.5448    0.0000 N   0  0  0  0  0  0  0  0  0
   -4.3549   -3.1323    0.0000 C   0  0  0  0  0  0  0  0  0
   -5.0694   -3.5448    0.0000 C   0  0  0  0  0  0  0  0  0
   -5.7838   -3.1323    0.0000 C   0  0  0  0  0  0  0  0  0
   -5.7838   -2.3073    0.0000 C   0  0  0  0  0  0  0  0  0
   -7.6465    4.8319    0.0000 C   0  0  0  0  0  0  0  0  0
   -7.0944    5.4450    0.0000 C   0  0  0  0  0  0  0  0  0
  1  2  1  0  0  0  0
  2  3  4  0  0  0  0
  2 31  4  0  0  0  0
  3  4  4  0  0  0  0
  4  5  4  0  0  0  0
  4  8  4  0  0  0  0
  5  6  4  0  0  0  0
  5 30  4  0  0  0  0
  6  7  4  0  0  0  0
  7  8  4  0  0  0  0
  8  9  1  0  0  0  0
  9 10  1  0  0  0  0
 10 11  1  0  0  0  0
 11 12  1  0  0  0  0
 12 13  1  0  0  0  0
 12 17  1  0  0  0  0
 13 14  1  0  0  0  0
 14 15  1  0  0  0  0
 15 16  1  0  0  0  0
 15 18  1  0  0  0  0
 16 17  1  0  0  0  0
 18 19  4  0  0  0  0
 18 29  4  0  0  0  0
 19 20  1  0  0  0  0
 19 26  4  0  0  0  0
 20 21  1  0  0  0  0
 21 22  1  0  0  0  0
 21 23  1  0  0  0  0
 23 24  2  0  0  0  0
 23 25  1  0  0  0  0
 25 26  1  0  0  0  0
 26 27  4  0  0  0  0
 27 28  4  0  0  0  0
 28 29  4  0  0  0  0
 30 31  4  0  0  0  0
M  STY  1   1 DAT
M  SAL   1  1   6
M  SDT   1 MRV_IMPLICIT_H                                        
M  SDD   1     0.0000    0.0000    DR    ALL  0       0  
M  SED   1 IMPL_H1
M  END
>  <Name_Molregno>
329265

>  <5-HT1A>
8.3

>  <5-HT2A>
7.7

>  <5-HT2C>
6.7

>  <5-HT7>
8.1

>  <DOPAMINE D2>
8.24

>  <DOPAMINE D3>
9.3

>  <Serotonin transporter>
9.6

$$$$
330283
  Marvin  02231216192D 0   1.00000     0.00000     0

 31 34  0  0  0  0  0  0  0  0999 V2000
    0.1076    0.0239    0.0000 Cl  0  0  0  0  0  0  0  0  0
    0.1076   -0.8011    0.0000 C   0  0  0  0  0  0  0  0  0
    0.8221   -1.2136    0.0000 C   0  0  0  0  0  0  0  0  0
    0.8221   -2.0386    0.0000 C   0  0  0  0  0  0  0  0  0
    0.1076   -2.4511    0.0000 C   0  0  0  0  0  0  0  0  0
   -0.6069   -2.0386    0.0000 C   0  0  0  0  0  0  0  0  0
   -0.6069   -1.2136    0.0000 C   0  0  0  0  0  0  0  0  0
   -1.3213   -0.8011    0.0000 N   0  0  0  0  0  0  0  0  0
   -2.0358   -1.2136    0.0000 C   0  0  0  0  0  0  0  0  0
   -2.7503   -0.8011    0.0000 C   0  0  0  0  0  0  0  0  0
   -2.7503    0.0239    0.0000 N   0  0  0  0  0  0  0  0  0
   -2.0358    0.4364    0.0000 C   0  0  0  0  0  0  0  0  0
   -1.3213    0.0239    0.0000 C   0  0  0  0  0  0  0  0  0
   -3.4647    0.4364    0.0000 C   0  0  0  0  0  0  0  0  0
   -3.4647    1.2614    0.0000 O   0  0  0  0  0  0  0  0  0
   -4.1792    0.0239    0.0000 N   0  0  0  0  0  0  0  0  0
   -4.8937    0.4364    0.0000 C   0  0  0  0  0  0  0  0  0
   -5.6082    0.0239    0.0000 C   0  0  0  0  0  0  0  0  0
   -6.3226    0.4364    0.0000 C   0  0  0  0  0  0  0  0  0
   -7.0371    0.0239    0.0000 N   0  0  0  0  0  0  0  0  0
   -7.0371   -0.8011    0.0000 C   0  0  0  0  0  0  0  0  0
   -7.7516   -1.2136    0.0000 C   0  0  0  0  0  0  0  0  0
   -8.4660   -0.8011    0.0000 N   0  0  0  0  0  0  0  0  0
   -8.4660    0.0239    0.0000 C   0  0  0  0  0  0  0  0  0
   -7.7516    0.4364    0.0000 C   0  0  0  0  0  0  0  0  0
   -9.1805   -1.2136    0.0000 C   0  0  0  0  0  0  0  0  0
   -6.3226    1.2614    0.0000 C   0  0  0  0  0  0  0  0  0
   -7.0371    1.6739    0.0000 O   0  0  0  0  0  0  0  0  0
   -7.0371    2.4989    0.0000 C   0  0  0  0  0  0  0  0  0
   -5.6082    1.6739    0.0000 C   0  0  0  0  0  0  0  0  0
   -4.8937    1.2614    0.0000 C   0  0  0  0  0  0  0  0  0
  1  2  1  0  0  0  0
  2  3  4  0  0  0  0
  2  7  4  0  0  0  0
  3  4  4  0  0  0  0
  4  5  4  0  0  0  0
  5  6  4  0  0  0  0
  6  7  4  0  0  0  0
  7  8  1  0  0  0  0
  8  9  1  0  0  0  0
  8 13  1  0  0  0  0
  9 10  1  0  0  0  0
 10 11  1  0  0  0  0
 11 12  1  0  0  0  0
 11 14  1  0  0  0  0
 12 13  1  0  0  0  0
 14 15  2  0  0  0  0
 14 16  1  0  0  0  0
 16 17  1  0  0  0  0
 17 18  4  0  0  0  0
 17 31  4  0  0  0  0
 18 19  4  0  0  0  0
 19 20  1  0  0  0  0
 19 27  4  0  0  0  0
 20 21  1  0  0  0  0
 20 25  1  0  0  0  0
 21 22  1  0  0  0  0
 22 23  1  0  0  0  0
 23 24  1  0  0  0  0
 23 26  1  0  0  0  0
 24 25  1  0  0  0  0
 27 28  1  0  0  0  0
 27 30  4  0  0  0  0
 28 29  1  0  0  0  0
 30 31  4  0  0  0  0
M  END
>  <Name_Molregno>
330283

>  <5-HT1A>
6.47

>  <5-HT1B>
7.95

>  <5-HT1D>
7.46

>  <5-HT2A>
5.22

>  <5-HT2C>
5.91

>  <5-HT6>
6.33

>  <5-HT7>
6.47

>  <DOPAMINE D1>
5

>  <DOPAMINE D2>
5

>  <DOPAMINE D3>
5

>  <DOPAMINE D4>
5

>  <DOPAMINE D5>
5

>  <HISTAMINE H1>
5

>  <Muscarinic acetylcholine receptor M1>
5

>  <Muscarinic acetylcholine receptor M2>
5

>  <Muscarinic acetylcholine receptor M3>
5

>  <Muscarinic acetylcholine receptor M4>
5

>  <Muscarinic acetylcholine receptor M5>
5

$$$$
330287
  Marvin  02231216192D 0   1.00000     0.00000     0

 31 34  0  0  0  0  0  0  0  0999 V2000
    0.1076    0.0239    0.0000 F   0  0  0  0  0  0  0  0  0
    0.1076   -0.8011    0.0000 C   0  0  0  0  0  0  0  0  0
    0.8221   -1.2136    0.0000 C   0  0  0  0  0  0  0  0  0
    0.8221   -2.0386    0.0000 C   0  0  0  0  0  0  0  0  0
    0.1076   -2.4511    0.0000 C   0  0  0  0  0  0  0  0  0
   -0.6069   -2.0386    0.0000 C   0  0  0  0  0  0  0  0  0
   -0.6069   -1.2136    0.0000 C   0  0  0  0  0  0  0  0  0
   -1.3213   -0.8011    0.0000 N   0  0  0  0  0  0  0  0  0
   -2.0358   -1.2136    0.0000 C   0  0  0  0  0  0  0  0  0
   -2.7503   -0.8011    0.0000 C   0  0  0  0  0  0  0  0  0
   -2.7503    0.0239    0.0000 N   0  0  0  0  0  0  0  0  0
   -2.0358    0.4364    0.0000 C   0  0  0  0  0  0  0  0  0
   -1.3213    0.0239    0.0000 C   0  0  0  0  0  0  0  0  0
   -3.4647    0.4364    0.0000 C   0  0  0  0  0  0  0  0  0
   -3.4647    1.2614    0.0000 O   0  0  0  0  0  0  0  0  0
   -4.1792    0.0239    0.0000 N   0  0  0  0  0  0  0  0  0
   -4.8937    0.4364    0.0000 C   0  0  0  0  0  0  0  0  0
   -5.6082    0.0239    0.0000 C   0  0  0  0  0  0  0  0  0
   -6.3226    0.4364    0.0000 C   0  0  0  0  0  0  0  0  0
   -7.0371    0.0239    0.0000 N   0  0  0  0  0  0  0  0  0
   -7.0371   -0.8011    0.0000 C   0  0  0  0  0  0  0  0  0
   -7.7516   -1.2136    0.0000 C   0  0  0  0  0  0  0  0  0
   -8.4660   -0.8011    0.0000 N   0  0  0  0  0  0  0  0  0
   -8.4660    0.0239    0.0000 C   0  0  0  0  0  0  0  0  0
   -7.7516    0.4364    0.0000 C   0  0  0  0  0  0  0  0  0
   -9.1805   -1.2136    0.0000 C   0  0  0  0  0  0  0  0  0
   -6.3226    1.2614    0.0000 C   0  0  0  0  0  0  0  0  0
   -7.0371    1.6739    0.0000 O   0  0  0  0  0  0  0  0  0
   -7.0371    2.4989    0.0000 C   0  0  0  0  0  0  0  0  0
   -5.6082    1.6739    0.0000 C   0  0  0  0  0  0  0  0  0
   -4.8937    1.2614    0.0000 C   0  0  0  0  0  0  0  0  0
  1  2  1  0  0  0  0
  2  3  4  0  0  0  0
  2  7  4  0  0  0  0
  3  4  4  0  0  0  0
  4  5  4  0  0  0  0
  5  6  4  0  0  0  0
  6  7  4  0  0  0  0
  7  8  1  0  0  0  0
  8  9  1  0  0  0  0
  8 13  1  0  0  0  0
  9 10  1  0  0  0  0
 10 11  1  0  0  0  0
 11 12  1  0  0  0  0
 11 14  1  0  0  0  0
 12 13  1  0  0  0  0
 14 15  2  0  0  0  0
 14 16  1  0  0  0  0
 16 17  1  0  0  0  0
 17 18  4  0  0  0  0
 17 31  4  0  0  0  0
 18 19  4  0  0  0  0
 19 20  1  0  0  0  0
 19 27  4  0  0  0  0
 20 21  1  0  0  0  0
 20 25  1  0  0  0  0
 21 22  1  0  0  0  0
 22 23  1  0  0  0  0
 23 24  1  0  0  0  0
 23 26  1  0  0  0  0
 24 25  1  0  0  0  0
 27 28  1  0  0  0  0
 27 30  4  0  0  0  0
 28 29  1  0  0  0  0
 30 31  4  0  0  0  0
M  END
>  <Name_Molregno>
330287

>  <5-HT1A>
6.5

>  <5-HT1B>
7.74

>  <5-HT1D>
6.99

>  <5-HT2A>
5

>  <5-HT2C>
5.97

>  <5-HT6>
6.08

>  <5-HT7>
5

>  <DOPAMINE D1>
5

>  <DOPAMINE D2>
5

>  <DOPAMINE D3>
5

>  <DOPAMINE D4>
5

>  <DOPAMINE D5>
5

>  <HISTAMINE H1>
5

>  <Muscarinic acetylcholine receptor M1>
5

>  <Muscarinic acetylcholine receptor M2>
5

>  <Muscarinic acetylcholine receptor M3>
5

>  <Muscarinic acetylcholine receptor M4>
5

>  <Muscarinic acetylcholine receptor M5>
5

$$$$
330313
  Marvin  02231216192D 0   1.00000     0.00000     0

 36 41  0  0  1  0  0  0  0  0999 V2000
    5.4835    2.8898    0.0000 S   0  0  0  0  0  0  0  0  0
    4.9986    2.2224    0.0000 N   0  0  0  0  0  0  0  0  0
    5.4835    1.5550    0.0000 C   0  0  0  0  0  0  0  0  0
    5.2286    0.7703    0.0000 N   0  0  0  0  0  0  0  0  0
    5.7806    0.1573    0.0000 C   0  0  0  0  0  0  0  0  0
    5.5257   -0.6274    0.0000 C   0  0  0  0  0  0  0  0  0
    4.7187   -0.7989    0.0000 N   0  0  0  0  0  0  0  0  0
    4.1667   -0.1858    0.0000 C   0  0  0  0  0  0  0  0  0
    4.4216    0.5988    0.0000 C   0  0  0  0  0  0  0  0  0
    4.4638   -1.5835    0.0000 C   0  0  0  0  0  0  0  0  0
    3.6568   -1.7550    0.0000 C   0  0  0  0  0  0  0  0  0
    3.1048   -1.1419    0.0000 C   0  0  0  0  0  0  0  0  0
    2.2978   -1.3135    0.0000 C   0  0  0  0  0  0  0  0  0
    2.0429   -2.0981    0.0000 N   0  0  0  0  0  0  0  0  0
    1.2359   -2.2696    0.0000 C   0  0  0  0  0  0  0  0  0
    0.6839   -1.6565    0.0000 C   0  0  0  0  0  0  0  0  0
    0.9388   -0.8719    0.0000 C   0  0  0  0  0  0  0  0  0
    1.7458   -0.7004    0.0000 C   0  0  0  0  0  0  0  0  0
    2.0007    0.0842    0.0000 C   0  0  0  0  0  0  0  0  0
    2.8077    0.2558    0.0000 C   0  0  0  0  0  0  0  0  0
    3.3597   -0.3573    0.0000 C   0  0  0  0  0  0  0  0  0
    0.3868   -0.2588    0.0000 C   0  0  0  0  0  0  0  0  0
    2.5949   -2.7112    0.0000 C   0  0  0  0  0  0  0  0  0
    3.4019   -2.5397    0.0000 O   0  0  0  0  0  0  0  0  0
    2.3399   -3.4958    0.0000 C   0  0  0  0  0  0  0  0  0
    2.8920   -4.1089    0.0000 C   0  0  0  0  0  0  0  0  0
    2.6370   -4.8935    0.0000 C   0  0  0  0  0  0  0  0  0
    1.8301   -5.0651    0.0000 C   0  0  0  0  0  0  0  0  0
    1.2780   -4.4520    0.0000 C   0  0  0  0  0  0  0  0  0
    1.5330   -3.6673    0.0000 C   0  0  0  0  0  0  0  0  0
    6.2681    1.8099    0.0000 C   0  0  0  0  0  0  0  0  0
    6.2681    2.6349    0.0000 C   0  0  0  0  0  0  0  0  0
    6.9826    3.0474    0.0000 C   0  0  0  0  0  0  0  0  0
    7.6971    2.6349    0.0000 C   0  0  0  0  0  0  0  0  0
    7.6971    1.8099    0.0000 C   0  0  0  0  0  0  0  0  0
    6.9826    1.3974    0.0000 C   0  0  0  0  0  0  0  0  0
  1  2  4  0  0  0  0
  1 32  4  0  0  0  0
  2  3  4  0  0  0  0
  3  4  1  0  0  0  0
  3 31  4  0  0  0  0
  4  5  1  0  0  0  0
  4  9  1  0  0  0  0
  5  6  1  0  0  0  0
  6  7  1  0  0  0  0
  7  8  1  0  0  0  0
  7 10  1  0  0  0  0
  8  9  1  0  0  0  0
 10 11  1  0  0  0  0
 11 12  1  0  0  0  0
 12 13  4  0  0  0  0
 12 21  4  0  0  0  0
 13 14  1  0  0  0  0
 13 18  4  0  0  0  0
 14 15  1  0  0  0  0
 14 23  1  0  0  0  0
 15 16  1  0  0  0  0
 16 17  1  0  0  0  0
 17 18  1  0  0  0  0
 17 22  1  0  0  0  0
 18 19  4  0  0  0  0
 19 20  4  0  0  0  0
 20 21  4  0  0  0  0
 23 24  2  0  0  0  0
 23 25  1  0  0  0  0
 25 26  4  0  0  0  0
 25 30  4  0  0  0  0
 26 27  4  0  0  0  0
 27 28  4  0  0  0  0
 28 29  4  0  0  0  0
 29 30  4  0  0  0  0
 31 32  4  0  0  0  0
 31 36  4  0  0  0  0
 32 33  4  0  0  0  0
 33 34  4  0  0  0  0
 34 35  4  0  0  0  0
 35 36  4  0  0  0  0
M  END
>  <Name_Molregno>
330313

>  <5-HT2A>
9.22

>  <DOPAMINE D2>
7.7

$$$$
330314
  Marvin  02231216192D 0   1.00000     0.00000     0

 32 36  0  0  1  0  0  0  0  0999 V2000
    5.1463    1.7430    0.0000 S   0  0  0  0  0  0  0  0  0
    4.6614    1.0756    0.0000 N   0  0  0  0  0  0  0  0  0
    5.1463    0.4081    0.0000 C   0  0  0  0  0  0  0  0  0
    4.8913   -0.3765    0.0000 N   0  0  0  0  0  0  0  0  0
    5.4434   -0.9896    0.0000 C   0  0  0  0  0  0  0  0  0
    5.1884   -1.7742    0.0000 C   0  0  0  0  0  0  0  0  0
    4.3815   -1.9457    0.0000 N   0  0  0  0  0  0  0  0  0
    3.8294   -1.3327    0.0000 C   0  0  0  0  0  0  0  0  0
    4.0844   -0.5480    0.0000 C   0  0  0  0  0  0  0  0  0
    4.1265   -2.7304    0.0000 C   0  0  0  0  0  0  0  0  0
    3.3196   -2.9019    0.0000 C   0  0  0  0  0  0  0  0  0
    2.7675   -2.2888    0.0000 C   0  0  0  0  0  0  0  0  0
    3.0225   -1.5042    0.0000 C   0  0  0  0  0  0  0  0  0
    2.4704   -0.8911    0.0000 C   0  0  0  0  0  0  0  0  0
    2.7254   -0.1065    0.0000 F   0  0  0  0  0  0  0  0  0
    1.6635   -1.0626    0.0000 C   0  0  0  0  0  0  0  0  0
    1.4085   -1.8472    0.0000 C   0  0  0  0  0  0  0  0  0
    1.9606   -2.4603    0.0000 C   0  0  0  0  0  0  0  0  0
    1.7056   -3.2450    0.0000 N   0  0  0  0  0  0  0  0  0
    0.8986   -3.4165    0.0000 C   0  0  0  0  0  0  0  0  0
    0.3466   -2.8034    0.0000 C   0  0  0  0  0  0  0  0  0
    0.6015   -2.0188    0.0000 C   0  0  0  0  0  0  0  0  0
    0.0495   -1.4057    0.0000 C   0  0  0  0  0  0  0  0  0
    2.2576   -3.8580    0.0000 C   0  0  0  0  0  0  0  0  0
    2.0027   -4.6427    0.0000 O   0  0  0  0  0  0  0  0  0
    3.0646   -3.6865    0.0000 C   0  0  0  0  0  0  0  0  0
    5.9309    0.6631    0.0000 C   0  0  0  0  0  0  0  0  0
    5.9309    1.4881    0.0000 C   0  0  0  0  0  0  0  0  0
    6.6454    1.9006    0.0000 C   0  0  0  0  0  0  0  0  0
    7.3598    1.4881    0.0000 C   0  0  0  0  0  0  0  0  0
    7.3598    0.6631    0.0000 C   0  0  0  0  0  0  0  0  0
    6.6454    0.2506    0.0000 C   0  0  0  0  0  0  0  0  0
  1  2  4  0  0  0  0
  1 28  4  0  0  0  0
  2  3  4  0  0  0  0
  3  4  1  0  0  0  0
  3 27  4  0  0  0  0
  4  5  1  0  0  0  0
  4  9  1  0  0  0  0
  5  6  1  0  0  0  0
  6  7  1  0  0  0  0
  7  8  1  0  0  0  0
  7 10  1  0  0  0  0
  8  9  1  0  0  0  0
 10 11  1  0  0  0  0
 11 12  1  0  0  0  0
 12 13  4  0  0  0  0
 12 18  4  0  0  0  0
 13 14  4  0  0  0  0
 14 15  1  0  0  0  0
 14 16  4  0  0  0  0
 16 17  4  0  0  0  0
 17 18  4  0  0  0  0
 17 22  1  0  0  0  0
 18 19  1  0  0  0  0
 19 20  1  0  0  0  0
 19 24  1  0  0  0  0
 20 21  1  0  0  0  0
 21 22  1  0  0  0  0
 22 23  1  0  0  0  0
 24 25  2  0  0  0  0
 24 26  1  0  0  0  0
 27 28  4  0  0  0  0
 27 32  4  0  0  0  0
 28 29  4  0  0  0  0
 29 30  4  0  0  0  0
 30 31  4  0  0  0  0
 31 32  4  0  0  0  0
M  END
>  <Name_Molregno>
330314

>  <5-HT2A>
9.36

>  <DOPAMINE D2>
7.74

$$$$
330322
  Marvin  02231216192D 0   1.00000     0.00000     0

 32 36  0  0  1  0  0  0  0  0999 V2000
    5.2481    1.8292    0.0000 O   0  0  0  0  0  0  0  0  0
    4.7632    1.1618    0.0000 N   0  0  0  0  0  0  0  0  0
    5.2481    0.4944    0.0000 C   0  0  0  0  0  0  0  0  0
    4.9932   -0.2902    0.0000 N   0  0  0  0  0  0  0  0  0
    5.5452   -0.9033    0.0000 C   0  0  0  0  0  0  0  0  0
    5.2903   -1.6880    0.0000 C   0  0  0  0  0  0  0  0  0
    4.4833   -1.8595    0.0000 N   0  0  0  0  0  0  0  0  0
    3.9313   -1.2464    0.0000 C   0  0  0  0  0  0  0  0  0
    4.1862   -0.4618    0.0000 C   0  0  0  0  0  0  0  0  0
    4.2284   -2.6441    0.0000 C   0  0  0  0  0  0  0  0  0
    3.4214   -2.8156    0.0000 C   0  0  0  0  0  0  0  0  0
    2.8694   -2.2025    0.0000 C   0  0  0  0  0  0  0  0  0
    2.0624   -2.3741    0.0000 C   0  0  0  0  0  0  0  0  0
    1.8075   -3.1587    0.0000 N   0  0  0  0  0  0  0  0  0
    1.0005   -3.3302    0.0000 C   0  0  0  0  0  0  0  0  0
    0.4485   -2.7171    0.0000 C   0  0  0  0  0  0  0  0  0
    0.7034   -1.9325    0.0000 C   0  0  0  0  0  0  0  0  0
    1.5104   -1.7610    0.0000 C   0  0  0  0  0  0  0  0  0
    1.7653   -0.9764    0.0000 C   0  0  0  0  0  0  0  0  0
    2.5723   -0.8048    0.0000 C   0  0  0  0  0  0  0  0  0
    3.1243   -1.4179    0.0000 C   0  0  0  0  0  0  0  0  0
    1.2133   -0.3633    0.0000 C   0  0  0  0  0  0  0  0  0
    0.1514   -1.3194    0.0000 C   0  0  0  0  0  0  0  0  0
    2.3595   -3.7718    0.0000 C   0  0  0  0  0  0  0  0  0
    2.1046   -4.5564    0.0000 O   0  0  0  0  0  0  0  0  0
    3.1665   -3.6003    0.0000 C   0  0  0  0  0  0  0  0  0
    6.0328    0.7493    0.0000 C   0  0  0  0  0  0  0  0  0
    6.0328    1.5743    0.0000 C   0  0  0  0  0  0  0  0  0
    6.7472    1.9868    0.0000 C   0  0  0  0  0  0  0  0  0
    7.4617    1.5743    0.0000 C   0  0  0  0  0  0  0  0  0
    7.4617    0.7493    0.0000 C   0  0  0  0  0  0  0  0  0
    6.7472    0.3368    0.0000 C   0  0  0  0  0  0  0  0  0
  1  2  4  0  0  0  0
  1 28  4  0  0  0  0
  2  3  4  0  0  0  0
  3  4  1  0  0  0  0
  3 27  4  0  0  0  0
  4  5  1  0  0  0  0
  4  9  1  0  0  0  0
  5  6  1  0  0  0  0
  6  7  1  0  0  0  0
  7  8  1  0  0  0  0
  7 10  1  0  0  0  0
  8  9  1  0  0  0  0
 10 11  1  0  0  0  0
 11 12  1  0  0  0  0
 12 13  4  0  0  0  0
 12 21  4  0  0  0  0
 13 14  1  0  0  0  0
 13 18  4  0  0  0  0
 14 15  1  0  0  0  0
 14 24  1  0  0  0  0
 15 16  1  0  0  0  0
 16 17  1  0  0  0  0
 17 18  1  0  0  0  0
 17 23  1  0  0  0  0
 18 19  4  0  0  0  0
 19 20  4  0  0  0  0
 19 22  1  0  0  0  0
 20 21  4  0  0  0  0
 24 25  2  0  0  0  0
 24 26  1  0  0  0  0
 27 28  4  0  0  0  0
 27 32  4  0  0  0  0
 28 29  4  0  0  0  0
 29 30  4  0  0  0  0
 30 31  4  0  0  0  0
 31 32  4  0  0  0  0
M  END
>  <Name_Molregno>
330322

>  <5-HT2A>
9.49

>  <DOPAMINE D2>
7.77

$$$$
330323
  Marvin  02231216192D 0   1.00000     0.00000     0

 32 36  0  0  1  0  0  0  0  0999 V2000
    3.5153    2.5400    0.0000 Cl  0  0  0  0  0  0  0  0  0
    2.9633    1.9269    0.0000 C   0  0  0  0  0  0  0  0  0
    3.2183    1.1423    0.0000 C   0  0  0  0  0  0  0  0  0
    2.6662    0.5292    0.0000 C   0  0  0  0  0  0  0  0  0
    1.8593    0.7007    0.0000 C   0  0  0  0  0  0  0  0  0
    1.3072    0.0876    0.0000 N   0  0  0  0  0  0  0  0  0
    0.5002    0.2591    0.0000 C   0  0  0  0  0  0  0  0  0
    0.2453    1.0437    0.0000 C   0  0  0  0  0  0  0  0  0
    0.7973    1.6568    0.0000 C   0  0  0  0  0  0  0  0  0
    1.6043    1.4853    0.0000 C   0  0  0  0  0  0  0  0  0
    2.1563    2.0984    0.0000 C   0  0  0  0  0  0  0  0  0
    0.5424    2.4415    0.0000 C   0  0  0  0  0  0  0  0  0
    1.5622   -0.6970    0.0000 C   0  0  0  0  0  0  0  0  0
    1.0101   -1.3101    0.0000 O   0  0  0  0  0  0  0  0  0
    2.3691   -0.8686    0.0000 C   0  0  0  0  0  0  0  0  0
    2.9212   -0.2555    0.0000 C   0  0  0  0  0  0  0  0  0
    3.7281   -0.4270    0.0000 C   0  0  0  0  0  0  0  0  0
    3.9831   -1.2116    0.0000 N   0  0  0  0  0  0  0  0  0
    4.7900   -1.3831    0.0000 C   0  0  0  0  0  0  0  0  0
    5.0450   -2.1678    0.0000 C   0  0  0  0  0  0  0  0  0
    4.4930   -2.7808    0.0000 N   0  0  0  0  0  0  0  0  0
    3.6860   -2.6093    0.0000 C   0  0  0  0  0  0  0  0  0
    3.4310   -1.8247    0.0000 C   0  0  0  0  0  0  0  0  0
    4.7479   -3.5655    0.0000 C   0  0  0  0  0  0  0  0  0
    4.2630   -4.2329    0.0000 N   0  0  0  0  0  0  0  0  0
    4.7479   -4.9003    0.0000 S   0  0  0  0  0  0  0  0  0
    5.5325   -4.6454    0.0000 C   0  0  0  0  0  0  0  0  0
    5.5325   -3.8204    0.0000 C   0  0  0  0  0  0  0  0  0
    6.2470   -3.4079    0.0000 C   0  0  0  0  0  0  0  0  0
    6.9615   -3.8204    0.0000 C   0  0  0  0  0  0  0  0  0
    6.9615   -4.6454    0.0000 C   0  0  0  0  0  0  0  0  0
    6.2470   -5.0579    0.0000 C   0  0  0  0  0  0  0  0  0
  1  2  1  0  0  0  0
  2  3  4  0  0  0  0
  2 11  4  0  0  0  0
  3  4  4  0  0  0  0
  4  5  4  0  0  0  0
  4 16  1  0  0  0  0
  5  6  1  0  0  0  0
  5 10  4  0  0  0  0
  6  7  1  0  0  0  0
  6 13  1  0  0  0  0
  7  8  1  0  0  0  0
  8  9  1  0  0  0  0
  9 10  1  0  0  0  0
  9 12  1  0  0  0  0
 10 11  4  0  0  0  0
 13 14  2  0  0  0  0
 13 15  1  0  0  0  0
 16 17  1  0  0  0  0
 17 18  1  0  0  0  0
 18 19  1  0  0  0  0
 18 23  1  0  0  0  0
 19 20  1  0  0  0  0
 20 21  1  0  0  0  0
 21 22  1  0  0  0  0
 21 24  1  0  0  0  0
 22 23  1  0  0  0  0
 24 25  4  0  0  0  0
 24 28  4  0  0  0  0
 25 26  4  0  0  0  0
 26 27  4  0  0  0  0
 27 28  4  0  0  0  0
 27 32  4  0  0  0  0
 28 29  4  0  0  0  0
 29 30  4  0  0  0  0
 30 31  4  0  0  0  0
 31 32  4  0  0  0  0
M  END
>  <Name_Molregno>
330323

>  <5-HT2A>
9.51

>  <DOPAMINE D2>
7.3

$$$$
330330
  Marvin  02231216192D 0   1.00000     0.00000     0

 32 36  0  0  1  0  0  0  0  0999 V2000
    3.5153    2.5400    0.0000 F   0  0  0  0  0  0  0  0  0
    2.9633    1.9269    0.0000 C   0  0  0  0  0  0  0  0  0
    3.2183    1.1423    0.0000 C   0  0  0  0  0  0  0  0  0
    2.6662    0.5292    0.0000 C   0  0  0  0  0  0  0  0  0
    1.8593    0.7007    0.0000 C   0  0  0  0  0  0  0  0  0
    1.3072    0.0876    0.0000 N   0  0  0  0  0  0  0  0  0
    0.5002    0.2591    0.0000 C   0  0  0  0  0  0  0  0  0
    0.2453    1.0437    0.0000 C   0  0  0  0  0  0  0  0  0
    0.7973    1.6568    0.0000 C   0  0  0  0  0  0  0  0  0
    1.6043    1.4853    0.0000 C   0  0  0  0  0  0  0  0  0
    2.1563    2.0984    0.0000 C   0  0  0  0  0  0  0  0  0
    0.5424    2.4415    0.0000 C   0  0  0  0  0  0  0  0  0
    1.5622   -0.6970    0.0000 C   0  0  0  0  0  0  0  0  0
    1.0101   -1.3101    0.0000 O   0  0  0  0  0  0  0  0  0
    2.3691   -0.8686    0.0000 C   0  0  0  0  0  0  0  0  0
    2.9212   -0.2555    0.0000 C   0  0  0  0  0  0  0  0  0
    3.7281   -0.4270    0.0000 C   0  0  0  0  0  0  0  0  0
    3.9831   -1.2116    0.0000 N   0  0  0  0  0  0  0  0  0
    4.7900   -1.3831    0.0000 C   0  0  0  0  0  0  0  0  0
    5.0450   -2.1678    0.0000 C   0  0  0  0  0  0  0  0  0
    4.4930   -2.7808    0.0000 N   0  0  0  0  0  0  0  0  0
    3.6860   -2.6093    0.0000 C   0  0  0  0  0  0  0  0  0
    3.4310   -1.8247    0.0000 C   0  0  0  0  0  0  0  0  0
    4.7479   -3.5655    0.0000 C   0  0  0  0  0  0  0  0  0
    4.2630   -4.2329    0.0000 N   0  0  0  0  0  0  0  0  0
    4.7479   -4.9003    0.0000 O   0  0  0  0  0  0  0  0  0
    5.5325   -4.6454    0.0000 C   0  0  0  0  0  0  0  0  0
    5.5325   -3.8204    0.0000 C   0  0  0  0  0  0  0  0  0
    6.2470   -3.4079    0.0000 C   0  0  0  0  0  0  0  0  0
    6.9615   -3.8204    0.0000 C   0  0  0  0  0  0  0  0  0
    6.9615   -4.6454    0.0000 C   0  0  0  0  0  0  0  0  0
    6.2470   -5.0579    0.0000 C   0  0  0  0  0  0  0  0  0
  1  2  1  0  0  0  0
  2  3  4  0  0  0  0
  2 11  4  0  0  0  0
  3  4  4  0  0  0  0
  4  5  4  0  0  0  0
  4 16  1  0  0  0  0
  5  6  1  0  0  0  0
  5 10  4  0  0  0  0
  6  7  1  0  0  0  0
  6 13  1  0  0  0  0
  7  8  1  0  0  0  0
  8  9  1  0  0  0  0
  9 10  1  0  0  0  0
  9 12  1  0  0  0  0
 10 11  4  0  0  0  0
 13 14  2  0  0  0  0
 13 15  1  0  0  0  0
 16 17  1  0  0  0  0
 17 18  1  0  0  0  0
 18 19  1  0  0  0  0
 18 23  1  0  0  0  0
 19 20  1  0  0  0  0
 20 21  1  0  0  0  0
 21 22  1  0  0  0  0
 21 24  1  0  0  0  0
 22 23  1  0  0  0  0
 24 25  4  0  0  0  0
 24 28  4  0  0  0  0
 25 26  4  0  0  0  0
 26 27  4  0  0  0  0
 27 28  4  0  0  0  0
 27 32  4  0  0  0  0
 28 29  4  0  0  0  0
 29 30  4  0  0  0  0
 30 31  4  0  0  0  0
 31 32  4  0  0  0  0
M  END
>  <Name_Molregno>
330330

>  <5-HT2A>
9.54

>  <DOPAMINE D2>
7.54

$$$$
330331
  Marvin  02231216192D 0   1.00000     0.00000     0

 36 41  0  0  1  0  0  0  0  0999 V2000
    6.5386    3.0423    0.0000 S   0  0  0  0  0  0  0  0  0
    6.0536    2.3749    0.0000 N   0  0  0  0  0  0  0  0  0
    6.5386    1.7074    0.0000 C   0  0  0  0  0  0  0  0  0
    6.2836    0.9228    0.0000 N   0  0  0  0  0  0  0  0  0
    6.8357    0.3097    0.0000 C   0  0  0  0  0  0  0  0  0
    6.5807   -0.4749    0.0000 C   0  0  0  0  0  0  0  0  0
    5.7737   -0.6464    0.0000 N   0  0  0  0  0  0  0  0  0
    5.2217   -0.0334    0.0000 C   0  0  0  0  0  0  0  0  0
    5.4766    0.7513    0.0000 C   0  0  0  0  0  0  0  0  0
    5.5188   -1.4311    0.0000 C   0  0  0  0  0  0  0  0  0
    4.7118   -1.6026    0.0000 C   0  0  0  0  0  0  0  0  0
    4.1598   -0.9895    0.0000 C   0  0  0  0  0  0  0  0  0
    3.3528   -1.1610    0.0000 C   0  0  0  0  0  0  0  0  0
    3.0979   -1.9456    0.0000 N   0  0  0  0  0  0  0  0  0
    2.2909   -2.1172    0.0000 C   0  0  0  0  0  0  0  0  0
    1.7389   -1.5041    0.0000 C   0  0  0  0  0  0  0  0  0
    1.9938   -0.7195    0.0000 C   0  0  0  0  0  0  0  0  0
    2.8008   -0.5479    0.0000 C   0  0  0  0  0  0  0  0  0
    3.0557    0.2367    0.0000 C   0  0  0  0  0  0  0  0  0
    3.8627    0.4082    0.0000 C   0  0  0  0  0  0  0  0  0
    4.4147   -0.2049    0.0000 C   0  0  0  0  0  0  0  0  0
    1.4418   -0.1064    0.0000 C   0  0  0  0  0  0  0  0  0
    0.6348   -0.2779    0.0000 C   0  0  0  0  0  0  0  0  0
    0.0828    0.3352    0.0000 C   0  0  0  0  0  0  0  0  0
    0.3377    1.1198    0.0000 C   0  0  0  0  0  0  0  0  0
    1.1447    1.2914    0.0000 C   0  0  0  0  0  0  0  0  0
    1.6967    0.6783    0.0000 C   0  0  0  0  0  0  0  0  0
    3.6499   -2.5587    0.0000 C   0  0  0  0  0  0  0  0  0
    3.3950   -3.3434    0.0000 O   0  0  0  0  0  0  0  0  0
    4.4569   -2.3872    0.0000 C   0  0  0  0  0  0  0  0  0
    7.3232    1.9624    0.0000 C   0  0  0  0  0  0  0  0  0
    7.3232    2.7874    0.0000 C   0  0  0  0  0  0  0  0  0
    8.0377    3.1999    0.0000 C   0  0  0  0  0  0  0  0  0
    8.7521    2.7874    0.0000 C   0  0  0  0  0  0  0  0  0
    8.7521    1.9624    0.0000 C   0  0  0  0  0  0  0  0  0
    8.0377    1.5499    0.0000 C   0  0  0  0  0  0  0  0  0
  1  2  4  0  0  0  0
  1 32  4  0  0  0  0
  2  3  4  0  0  0  0
  3  4  1  0  0  0  0
  3 31  4  0  0  0  0
  4  5  1  0  0  0  0
  4  9  1  0  0  0  0
  5  6  1  0  0  0  0
  6  7  1  0  0  0  0
  7  8  1  0  0  0  0
  7 10  1  0  0  0  0
  8  9  1  0  0  0  0
 10 11  1  0  0  0  0
 11 12  1  0  0  0  0
 12 13  4  0  0  0  0
 12 21  4  0  0  0  0
 13 14  1  0  0  0  0
 13 18  4  0  0  0  0
 14 15  1  0  0  0  0
 14 28  1  0  0  0  0
 15 16  1  0  0  0  0
 16 17  1  0  0  0  0
 17 18  1  0  0  0  0
 17 22  1  0  0  0  0
 18 19  4  0  0  0  0
 19 20  4  0  0  0  0
 20 21  4  0  0  0  0
 22 23  4  0  0  0  0
 22 27  4  0  0  0  0
 23 24  4  0  0  0  0
 24 25  4  0  0  0  0
 25 26  4  0  0  0  0
 26 27  4  0  0  0  0
 28 29  2  0  0  0  0
 28 30  1  0  0  0  0
 31 32  4  0  0  0  0
 31 36  4  0  0  0  0
 32 33  4  0  0  0  0
 33 34  4  0  0  0  0
 34 35  4  0  0  0  0
 35 36  4  0  0  0  0
M  END
>  <Name_Molregno>
330331

>  <5-HT2A>
8.67

>  <DOPAMINE D2>
7.92

$$$$
330338
  Marvin  02231216192D 0   1.00000     0.00000     0

 32 36  0  0  1  0  0  0  0  0999 V2000
    5.2481    1.8292    0.0000 S   0  0  0  0  0  0  0  0  0
    4.7632    1.1618    0.0000 N   0  0  0  0  0  0  0  0  0
    5.2481    0.4944    0.0000 C   0  0  0  0  0  0  0  0  0
    4.9932   -0.2902    0.0000 N   0  0  0  0  0  0  0  0  0
    5.5452   -0.9033    0.0000 C   0  0  0  0  0  0  0  0  0
    5.2903   -1.6880    0.0000 C   0  0  0  0  0  0  0  0  0
    4.4833   -1.8595    0.0000 N   0  0  0  0  0  0  0  0  0
    3.9313   -1.2464    0.0000 C   0  0  0  0  0  0  0  0  0
    4.1862   -0.4618    0.0000 C   0  0  0  0  0  0  0  0  0
    4.2284   -2.6441    0.0000 C   0  0  0  0  0  0  0  0  0
    3.4214   -2.8156    0.0000 C   0  0  0  0  0  0  0  0  0
    2.8694   -2.2025    0.0000 C   0  0  0  0  0  0  0  0  0
    2.0624   -2.3741    0.0000 C   0  0  0  0  0  0  0  0  0
    1.8075   -3.1587    0.0000 N   0  0  0  0  0  0  0  0  0
    1.0005   -3.3302    0.0000 C   0  0  0  0  0  0  0  0  0
    0.4485   -2.7171    0.0000 C   0  0  0  0  0  0  0  0  0
    0.7034   -1.9325    0.0000 C   0  0  0  0  0  0  0  0  0
    1.5104   -1.7610    0.0000 C   0  0  0  0  0  0  0  0  0
    1.7653   -0.9764    0.0000 C   0  0  0  0  0  0  0  0  0
    2.5723   -0.8048    0.0000 C   0  0  0  0  0  0  0  0  0
    3.1243   -1.4179    0.0000 C   0  0  0  0  0  0  0  0  0
    1.2133   -0.3633    0.0000 C   0  0  0  0  0  0  0  0  0
    0.1514   -1.3194    0.0000 C   0  0  0  0  0  0  0  0  0
    2.3595   -3.7718    0.0000 C   0  0  0  0  0  0  0  0  0
    2.1046   -4.5564    0.0000 O   0  0  0  0  0  0  0  0  0
    3.1665   -3.6003    0.0000 C   0  0  0  0  0  0  0  0  0
    6.0328    0.7493    0.0000 C   0  0  0  0  0  0  0  0  0
    6.0328    1.5743    0.0000 C   0  0  0  0  0  0  0  0  0
    6.7472    1.9868    0.0000 C   0  0  0  0  0  0  0  0  0
    7.4617    1.5743    0.0000 C   0  0  0  0  0  0  0  0  0
    7.4617    0.7493    0.0000 C   0  0  0  0  0  0  0  0  0
    6.7472    0.3368    0.0000 C   0  0  0  0  0  0  0  0  0
  1  2  4  0  0  0  0
  1 28  4  0  0  0  0
  2  3  4  0  0  0  0
  3  4  1  0  0  0  0
  3 27  4  0  0  0  0
  4  5  1  0  0  0  0
  4  9  1  0  0  0  0
  5  6  1  0  0  0  0
  6  7  1  0  0  0  0
  7  8  1  0  0  0  0
  7 10  1  0  0  0  0
  8  9  1  0  0  0  0
 10 11  1  0  0  0  0
 11 12  1  0  0  0  0
 12 13  4  0  0  0  0
 12 21  4  0  0  0  0
 13 14  1  0  0  0  0
 13 18  4  0  0  0  0
 14 15  1  0  0  0  0
 14 24  1  0  0  0  0
 15 16  1  0  0  0  0
 16 17  1  0  0  0  0
 17 18  1  0  0  0  0
 17 23  1  0  0  0  0
 18 19  4  0  0  0  0
 19 20  4  0  0  0  0
 19 22  1  0  0  0  0
 20 21  4  0  0  0  0
 24 25  2  0  0  0  0
 24 26  1  0  0  0  0
 27 28  4  0  0  0  0
 27 32  4  0  0  0  0
 28 29  4  0  0  0  0
 29 30  4  0  0  0  0
 30 31  4  0  0  0  0
 31 32  4  0  0  0  0
M  END
>  <Name_Molregno>
330338

>  <5-HT2A>
9.12

>  <DOPAMINE D2>
7.92

$$$$
330357
  Marvin  02231216192D 0   1.00000     0.00000     0

 28 32  0  0  0  0  0  0  0  0999 V2000
    4.0266    3.9182    0.0000 S   0  0  0  0  0  0  0  0  0
    3.5417    3.2508    0.0000 N   0  0  0  0  0  0  0  0  0
    4.0266    2.5834    0.0000 C   0  0  0  0  0  0  0  0  0
    3.7717    1.7987    0.0000 N   0  0  0  0  0  0  0  0  0
    4.3237    1.1856    0.0000 C   0  0  0  0  0  0  0  0  0
    4.0688    0.4010    0.0000 C   0  0  0  0  0  0  0  0  0
    3.2618    0.2295    0.0000 N   0  0  0  0  0  0  0  0  0
    2.7098    0.8426    0.0000 C   0  0  0  0  0  0  0  0  0
    2.9647    1.6272    0.0000 C   0  0  0  0  0  0  0  0  0
    3.0069   -0.5551    0.0000 C   0  0  0  0  0  0  0  0  0
    2.1999   -0.7267    0.0000 C   0  0  0  0  0  0  0  0  0
    1.9450   -1.5113    0.0000 C   0  0  0  0  0  0  0  0  0
    2.4970   -2.1244    0.0000 C   0  0  0  0  0  0  0  0  0
    3.3040   -1.9528    0.0000 N   0  0  0  0  0  0  0  0  0
    3.8560   -2.5659    0.0000 C   0  0  0  0  0  0  0  0  0
    4.6630   -2.3944    0.0000 O   0  0  0  0  0  0  0  0  0
    3.6011   -3.3506    0.0000 C   0  0  0  0  0  0  0  0  0
    2.7941   -3.5221    0.0000 C   0  0  0  0  0  0  0  0  0
    2.2421   -2.9090    0.0000 C   0  0  0  0  0  0  0  0  0
    1.4351   -3.0805    0.0000 C   0  0  0  0  0  0  0  0  0
    0.8830   -2.4674    0.0000 C   0  0  0  0  0  0  0  0  0
    1.1380   -1.6828    0.0000 C   0  0  0  0  0  0  0  0  0
    4.8112    2.8383    0.0000 C   0  0  0  0  0  0  0  0  0
    4.8112    3.6633    0.0000 C   0  0  0  0  0  0  0  0  0
    5.5257    4.0758    0.0000 C   0  0  0  0  0  0  0  0  0
    6.2402    3.6633    0.0000 C   0  0  0  0  0  0  0  0  0
    6.2402    2.8383    0.0000 C   0  0  0  0  0  0  0  0  0
    5.5257    2.4258    0.0000 C   0  0  0  0  0  0  0  0  0
  1  2  4  0  0  0  0
  1 24  4  0  0  0  0
  2  3  4  0  0  0  0
  3  4  1  0  0  0  0
  3 23  4  0  0  0  0
  4  5  1  0  0  0  0
  4  9  1  0  0  0  0
  5  6  1  0  0  0  0
  6  7  1  0  0  0  0
  7  8  1  0  0  0  0
  7 10  1  0  0  0  0
  8  9  1  0  0  0  0
 10 11  1  0  0  0  0
 11 12  1  0  0  0  0
 12 13  4  0  0  0  0
 12 22  4  0  0  0  0
 13 14  1  0  0  0  0
 13 19  4  0  0  0  0
 14 15  1  0  0  0  0
 15 16  2  0  0  0  0
 15 17  1  0  0  0  0
 17 18  1  0  0  0  0
 18 19  1  0  0  0  0
 19 20  4  0  0  0  0
 20 21  4  0  0  0  0
 21 22  4  0  0  0  0
 23 24  4  0  0  0  0
 23 28  4  0  0  0  0
 24 25  4  0  0  0  0
 25 26  4  0  0  0  0
 26 27  4  0  0  0  0
 27 28  4  0  0  0  0
M  END
>  <Name_Molregno>
330357

>  <5-HT2A>
9.55

>  <DOPAMINE D2>
7

$$$$
330358
  Marvin  02231216192D 0   1.00000     0.00000     0

 29 33  0  0  1  0  0  0  0  0999 V2000
    4.2152    3.5676    0.0000 S   0  0  0  0  0  0  0  0  0
    3.7303    2.9001    0.0000 N   0  0  0  0  0  0  0  0  0
    4.2152    2.2327    0.0000 C   0  0  0  0  0  0  0  0  0
    3.9603    1.4481    0.0000 N   0  0  0  0  0  0  0  0  0
    4.5123    0.8350    0.0000 C   0  0  0  0  0  0  0  0  0
    4.2574    0.0504    0.0000 C   0  0  0  0  0  0  0  0  0
    3.4504   -0.1212    0.0000 N   0  0  0  0  0  0  0  0  0
    2.8984    0.4919    0.0000 C   0  0  0  0  0  0  0  0  0
    3.1533    1.2766    0.0000 C   0  0  0  0  0  0  0  0  0
    3.1955   -0.9058    0.0000 C   0  0  0  0  0  0  0  0  0
    2.3885   -1.0773    0.0000 C   0  0  0  0  0  0  0  0  0
    2.1336   -1.8619    0.0000 C   0  0  0  0  0  0  0  0  0
    2.6856   -2.4750    0.0000 C   0  0  0  0  0  0  0  0  0
    3.4926   -2.3035    0.0000 N   0  0  0  0  0  0  0  0  0
    4.0446   -2.9166    0.0000 C   0  0  0  0  0  0  0  0  0
    4.8516   -2.7451    0.0000 O   0  0  0  0  0  0  0  0  0
    3.7897   -3.7012    0.0000 C   0  0  0  0  0  0  0  0  0
    2.9827   -3.8727    0.0000 C   0  0  0  0  0  0  0  0  0
    2.4307   -3.2596    0.0000 C   0  0  0  0  0  0  0  0  0
    1.6237   -3.4312    0.0000 C   0  0  0  0  0  0  0  0  0
    1.0717   -2.8181    0.0000 C   0  0  0  0  0  0  0  0  0
    1.3266   -2.0335    0.0000 C   0  0  0  0  0  0  0  0  0
    2.7278   -4.6574    0.0000 C   0  0  0  0  0  0  0  0  0
    4.9999    2.4876    0.0000 C   0  0  0  0  0  0  0  0  0
    4.9999    3.3126    0.0000 C   0  0  0  0  0  0  0  0  0
    5.7143    3.7251    0.0000 C   0  0  0  0  0  0  0  0  0
    6.4288    3.3126    0.0000 C   0  0  0  0  0  0  0  0  0
    6.4288    2.4876    0.0000 C   0  0  0  0  0  0  0  0  0
    5.7143    2.0751    0.0000 C   0  0  0  0  0  0  0  0  0
  1  2  4  0  0  0  0
  1 25  4  0  0  0  0
  2  3  4  0  0  0  0
  3  4  1  0  0  0  0
  3 24  4  0  0  0  0
  4  5  1  0  0  0  0
  4  9  1  0  0  0  0
  5  6  1  0  0  0  0
  6  7  1  0  0  0  0
  7  8  1  0  0  0  0
  7 10  1  0  0  0  0
  8  9  1  0  0  0  0
 10 11  1  0  0  0  0
 11 12  1  0  0  0  0
 12 13  4  0  0  0  0
 12 22  4  0  0  0  0
 13 14  1  0  0  0  0
 13 19  4  0  0  0  0
 14 15  1  0  0  0  0
 15 16  2  0  0  0  0
 15 17  1  0  0  0  0
 17 18  1  0  0  0  0
 18 19  1  0  0  0  0
 18 23  1  0  0  0  0
 19 20  4  0  0  0  0
 20 21  4  0  0  0  0
 21 22  4  0  0  0  0
 24 25  4  0  0  0  0
 24 29  4  0  0  0  0
 25 26  4  0  0  0  0
 26 27  4  0  0  0  0
 27 28  4  0  0  0  0
 28 29  4  0  0  0  0
M  END
>  <Name_Molregno>
330358

>  <5-HT2A>
9.66

>  <DOPAMINE D2>
7.68

$$$$
330367
  Marvin  02231216192D 0   1.00000     0.00000     0

 30 34  0  0  1  0  0  0  0  0999 V2000
    4.2661    5.1297    0.0000 S   0  0  0  0  0  0  0  0  0
    3.7812    4.4623    0.0000 N   0  0  0  0  0  0  0  0  0
    4.2661    3.7949    0.0000 C   0  0  0  0  0  0  0  0  0
    4.0111    3.0102    0.0000 N   0  0  0  0  0  0  0  0  0
    4.5632    2.3971    0.0000 C   0  0  0  0  0  0  0  0  0
    4.3082    1.6125    0.0000 C   0  0  0  0  0  0  0  0  0
    3.5013    1.4410    0.0000 N   0  0  0  0  0  0  0  0  0
    2.9492    2.0541    0.0000 C   0  0  0  0  0  0  0  0  0
    3.2042    2.8387    0.0000 C   0  0  0  0  0  0  0  0  0
    3.2463    0.6564    0.0000 C   0  0  0  0  0  0  0  0  0
    2.4393    0.4848    0.0000 C   0  0  0  0  0  0  0  0  0
    2.1844   -0.2998    0.0000 C   0  0  0  0  0  0  0  0  0
    1.3774   -0.4713    0.0000 C   0  0  0  0  0  0  0  0  0
    1.1225   -1.2559    0.0000 C   0  0  0  0  0  0  0  0  0
    0.3155   -1.4275    0.0000 F   0  0  0  0  0  0  0  0  0
    1.6745   -1.8690    0.0000 C   0  0  0  0  0  0  0  0  0
    2.4815   -1.6975    0.0000 C   0  0  0  0  0  0  0  0  0
    2.7364   -0.9129    0.0000 C   0  0  0  0  0  0  0  0  0
    3.5434   -0.7413    0.0000 N   0  0  0  0  0  0  0  0  0
    4.0954   -1.3544    0.0000 C   0  0  0  0  0  0  0  0  0
    4.9024   -1.1829    0.0000 O   0  0  0  0  0  0  0  0  0
    3.8405   -2.1391    0.0000 C   0  0  0  0  0  0  0  0  0
    3.0335   -2.3106    0.0000 C   0  0  0  0  0  0  0  0  0
    2.7786   -3.0952    0.0000 C   0  0  0  0  0  0  0  0  0
    5.0507    4.0498    0.0000 C   0  0  0  0  0  0  0  0  0
    5.0507    4.8748    0.0000 C   0  0  0  0  0  0  0  0  0
    5.7652    5.2873    0.0000 C   0  0  0  0  0  0  0  0  0
    6.4796    4.8748    0.0000 C   0  0  0  0  0  0  0  0  0
    6.4796    4.0498    0.0000 C   0  0  0  0  0  0  0  0  0
    5.7652    3.6373    0.0000 C   0  0  0  0  0  0  0  0  0
  1  2  4  0  0  0  0
  1 26  4  0  0  0  0
  2  3  4  0  0  0  0
  3  4  1  0  0  0  0
  3 25  4  0  0  0  0
  4  5  1  0  0  0  0
  4  9  1  0  0  0  0
  5  6  1  0  0  0  0
  6  7  1  0  0  0  0
  7  8  1  0  0  0  0
  7 10  1  0  0  0  0
  8  9  1  0  0  0  0
 10 11  1  0  0  0  0
 11 12  1  0  0  0  0
 12 13  4  0  0  0  0
 12 18  4  0  0  0  0
 13 14  4  0  0  0  0
 14 15  1  0  0  0  0
 14 16  4  0  0  0  0
 16 17  4  0  0  0  0
 17 18  4  0  0  0  0
 17 23  1  0  0  0  0
 18 19  1  0  0  0  0
 19 20  1  0  0  0  0
 20 21  2  0  0  0  0
 20 22  1  0  0  0  0
 22 23  1  0  0  0  0
 23 24  1  0  0  0  0
 25 26  4  0  0  0  0
 25 30  4  0  0  0  0
 26 27  4  0  0  0  0
 27 28  4  0  0  0  0
 28 29  4  0  0  0  0
 29 30  4  0  0  0  0
M  END
>  <Name_Molregno>
330367

>  <5-HT2A>
9.77

>  <DOPAMINE D2>
7.82

$$$$
330368
  Marvin  02231216192D 0   1.00000     0.00000     0

 29 33  0  0  1  0  0  0  0  0999 V2000
    4.1330    4.1085    0.0000 S   0  0  0  0  0  0  0  0  0
    3.6481    3.4410    0.0000 N   0  0  0  0  0  0  0  0  0
    4.1330    2.7736    0.0000 C   0  0  0  0  0  0  0  0  0
    3.8780    1.9890    0.0000 N   0  0  0  0  0  0  0  0  0
    4.4301    1.3759    0.0000 C   0  0  0  0  0  0  0  0  0
    4.1751    0.5912    0.0000 C   0  0  0  0  0  0  0  0  0
    3.3682    0.4197    0.0000 N   0  0  0  0  0  0  0  0  0
    2.8161    1.0328    0.0000 C   0  0  0  0  0  0  0  0  0
    3.0711    1.8174    0.0000 C   0  0  0  0  0  0  0  0  0
    3.1132   -0.3649    0.0000 C   0  0  0  0  0  0  0  0  0
    2.3063   -0.5364    0.0000 C   0  0  0  0  0  0  0  0  0
    2.0513   -1.3210    0.0000 C   0  0  0  0  0  0  0  0  0
    2.6033   -1.9341    0.0000 C   0  0  0  0  0  0  0  0  0
    3.4103   -1.7626    0.0000 N   0  0  0  0  0  0  0  0  0
    3.9624   -2.3757    0.0000 C   0  0  0  0  0  0  0  0  0
    4.7693   -2.2042    0.0000 O   0  0  0  0  0  0  0  0  0
    3.7074   -3.1603    0.0000 C   0  0  0  0  0  0  0  0  0
    2.9004   -3.3319    0.0000 C   0  0  0  0  0  0  0  0  0
    2.3484   -2.7188    0.0000 C   0  0  0  0  0  0  0  0  0
    1.5414   -2.8903    0.0000 C   0  0  0  0  0  0  0  0  0
    0.9894   -2.2772    0.0000 C   0  0  0  0  0  0  0  0  0
    1.2443   -1.4926    0.0000 C   0  0  0  0  0  0  0  0  0
    4.2594   -3.7734    0.0000 C   0  0  0  0  0  0  0  0  0
    4.9176    3.0285    0.0000 C   0  0  0  0  0  0  0  0  0
    4.9176    3.8535    0.0000 C   0  0  0  0  0  0  0  0  0
    5.6321    4.2660    0.0000 C   0  0  0  0  0  0  0  0  0
    6.3465    3.8535    0.0000 C   0  0  0  0  0  0  0  0  0
    6.3465    3.0285    0.0000 C   0  0  0  0  0  0  0  0  0
    5.6321    2.6160    0.0000 C   0  0  0  0  0  0  0  0  0
  1  2  4  0  0  0  0
  1 25  4  0  0  0  0
  2  3  4  0  0  0  0
  3  4  1  0  0  0  0
  3 24  4  0  0  0  0
  4  5  1  0  0  0  0
  4  9  1  0  0  0  0
  5  6  1  0  0  0  0
  6  7  1  0  0  0  0
  7  8  1  0  0  0  0
  7 10  1  0  0  0  0
  8  9  1  0  0  0  0
 10 11  1  0  0  0  0
 11 12  1  0  0  0  0
 12 13  4  0  0  0  0
 12 22  4  0  0  0  0
 13 14  1  0  0  0  0
 13 19  4  0  0  0  0
 14 15  1  0  0  0  0
 15 16  2  0  0  0  0
 15 17  1  0  0  0  0
 17 18  1  0  0  0  0
 17 23  1  0  0  0  0
 18 19  1  0  0  0  0
 19 20  4  0  0  0  0
 20 21  4  0  0  0  0
 21 22  4  0  0  0  0
 24 25  4  0  0  0  0
 24 29  4  0  0  0  0
 25 26  4  0  0  0  0
 26 27  4  0  0  0  0
 27 28  4  0  0  0  0
 28 29  4  0  0  0  0
M  END
>  <Name_Molregno>
330368

>  <5-HT2A>
8.97

>  <DOPAMINE D2>
7.14

$$$$
330377
  Marvin  02231216192D 0   1.00000     0.00000     0

 30 34  0  0  1  0  0  0  0  0999 V2000
    4.1018    2.7942    0.0000 S   0  0  0  0  0  0  0  0  0
    3.6169    2.1268    0.0000 N   0  0  0  0  0  0  0  0  0
    4.1018    1.4594    0.0000 C   0  0  0  0  0  0  0  0  0
    3.8469    0.6747    0.0000 N   0  0  0  0  0  0  0  0  0
    4.3989    0.0616    0.0000 C   0  0  0  0  0  0  0  0  0
    4.1440   -0.7230    0.0000 C   0  0  0  0  0  0  0  0  0
    3.3370   -0.8945    0.0000 N   0  0  0  0  0  0  0  0  0
    2.7850   -0.2814    0.0000 C   0  0  0  0  0  0  0  0  0
    3.0399    0.5032    0.0000 C   0  0  0  0  0  0  0  0  0
    3.0820   -1.6791    0.0000 C   0  0  0  0  0  0  0  0  0
    2.2751   -1.8507    0.0000 C   0  0  0  0  0  0  0  0  0
    2.0201   -2.6353    0.0000 C   0  0  0  0  0  0  0  0  0
    2.5722   -3.2484    0.0000 C   0  0  0  0  0  0  0  0  0
    3.3791   -3.0768    0.0000 N   0  0  0  0  0  0  0  0  0
    3.6341   -2.2922    0.0000 C   0  0  0  0  0  0  0  0  0
    3.9312   -3.6899    0.0000 C   0  0  0  0  0  0  0  0  0
    4.7381   -3.5184    0.0000 O   0  0  0  0  0  0  0  0  0
    3.6762   -4.4746    0.0000 C   0  0  0  0  0  0  0  0  0
    2.8693   -4.6461    0.0000 C   0  0  0  0  0  0  0  0  0
    2.3172   -4.0330    0.0000 C   0  0  0  0  0  0  0  0  0
    1.5103   -4.2045    0.0000 C   0  0  0  0  0  0  0  0  0
    0.9582   -3.5914    0.0000 C   0  0  0  0  0  0  0  0  0
    1.2132   -2.8068    0.0000 C   0  0  0  0  0  0  0  0  0
    2.6143   -5.4307    0.0000 C   0  0  0  0  0  0  0  0  0
    4.8864    1.7143    0.0000 C   0  0  0  0  0  0  0  0  0
    4.8864    2.5393    0.0000 C   0  0  0  0  0  0  0  0  0
    5.6009    2.9518    0.0000 C   0  0  0  0  0  0  0  0  0
    6.3154    2.5393    0.0000 C   0  0  0  0  0  0  0  0  0
    6.3154    1.7143    0.0000 C   0  0  0  0  0  0  0  0  0
    5.6009    1.3018    0.0000 C   0  0  0  0  0  0  0  0  0
  1  2  4  0  0  0  0
  1 26  4  0  0  0  0
  2  3  4  0  0  0  0
  3  4  1  0  0  0  0
  3 25  4  0  0  0  0
  4  5  1  0  0  0  0
  4  9  1  0  0  0  0
  5  6  1  0  0  0  0
  6  7  1  0  0  0  0
  7  8  1  0  0  0  0
  7 10  1  0  0  0  0
  8  9  1  0  0  0  0
 10 11  1  0  0  0  0
 11 12  1  0  0  0  0
 12 13  4  0  0  0  0
 12 23  4  0  0  0  0
 13 14  1  0  0  0  0
 13 20  4  0  0  0  0
 14 15  1  0  0  0  0
 14 16  1  0  0  0  0
 16 17  2  0  0  0  0
 16 18  1  0  0  0  0
 18 19  1  0  0  0  0
 19 20  1  0  0  0  0
 19 24  1  0  0  0  0
 20 21  4  0  0  0  0
 21 22  4  0  0  0  0
 22 23  4  0  0  0  0
 25 26  4  0  0  0  0
 25 30  4  0  0  0  0
 26 27  4  0  0  0  0
 27 28  4  0  0  0  0
 28 29  4  0  0  0  0
 29 30  4  0  0  0  0
M  END
>  <Name_Molregno>
330377

>  <5-HT2A>
9.77

>  <DOPAMINE D2>
7.09

$$$$
330378
  Marvin  02231216192D 0   1.00000     0.00000     0

 34 39  0  0  1  0  0  0  0  0999 V2000
    5.2043    4.4880    0.0000 S   0  0  0  0  0  0  0  0  0
    4.7194    3.8205    0.0000 N   0  0  0  0  0  0  0  0  0
    5.2043    3.1531    0.0000 C   0  0  0  0  0  0  0  0  0
    4.9494    2.3685    0.0000 N   0  0  0  0  0  0  0  0  0
    5.5014    1.7554    0.0000 C   0  0  0  0  0  0  0  0  0
    5.2464    0.9708    0.0000 C   0  0  0  0  0  0  0  0  0
    4.4395    0.7992    0.0000 N   0  0  0  0  0  0  0  0  0
    3.8874    1.4123    0.0000 C   0  0  0  0  0  0  0  0  0
    4.1424    2.1970    0.0000 C   0  0  0  0  0  0  0  0  0
    4.1845    0.0146    0.0000 C   0  0  0  0  0  0  0  0  0
    3.3776   -0.1569    0.0000 C   0  0  0  0  0  0  0  0  0
    3.1226   -0.9415    0.0000 C   0  0  0  0  0  0  0  0  0
    3.6747   -1.5546    0.0000 C   0  0  0  0  0  0  0  0  0
    4.4816   -1.3831    0.0000 N   0  0  0  0  0  0  0  0  0
    5.0337   -1.9962    0.0000 C   0  0  0  0  0  0  0  0  0
    5.8406   -1.8247    0.0000 O   0  0  0  0  0  0  0  0  0
    4.7787   -2.7808    0.0000 C   0  0  0  0  0  0  0  0  0
    3.9718   -2.9523    0.0000 C   0  0  0  0  0  0  0  0  0
    3.4197   -2.3392    0.0000 C   0  0  0  0  0  0  0  0  0
    2.6128   -2.5108    0.0000 C   0  0  0  0  0  0  0  0  0
    2.0607   -1.8977    0.0000 C   0  0  0  0  0  0  0  0  0
    2.3157   -1.1131    0.0000 C   0  0  0  0  0  0  0  0  0
    3.7168   -3.7370    0.0000 C   0  0  0  0  0  0  0  0  0
    4.2688   -4.3501    0.0000 C   0  0  0  0  0  0  0  0  0
    4.0139   -5.1347    0.0000 C   0  0  0  0  0  0  0  0  0
    3.2069   -5.3062    0.0000 C   0  0  0  0  0  0  0  0  0
    2.6549   -4.6931    0.0000 C   0  0  0  0  0  0  0  0  0
    2.9098   -3.9085    0.0000 C   0  0  0  0  0  0  0  0  0
    5.9889    3.4080    0.0000 C   0  0  0  0  0  0  0  0  0
    5.9889    4.2330    0.0000 C   0  0  0  0  0  0  0  0  0
    6.7034    4.6455    0.0000 C   0  0  0  0  0  0  0  0  0
    7.4179    4.2330    0.0000 C   0  0  0  0  0  0  0  0  0
    7.4179    3.4080    0.0000 C   0  0  0  0  0  0  0  0  0
    6.7034    2.9955    0.0000 C   0  0  0  0  0  0  0  0  0
  1  2  4  0  0  0  0
  1 30  4  0  0  0  0
  2  3  4  0  0  0  0
  3  4  1  0  0  0  0
  3 29  4  0  0  0  0
  4  5  1  0  0  0  0
  4  9  1  0  0  0  0
  5  6  1  0  0  0  0
  6  7  1  0  0  0  0
  7  8  1  0  0  0  0
  7 10  1  0  0  0  0
  8  9  1  0  0  0  0
 10 11  1  0  0  0  0
 11 12  1  0  0  0  0
 12 13  4  0  0  0  0
 12 22  4  0  0  0  0
 13 14  1  0  0  0  0
 13 19  4  0  0  0  0
 14 15  1  0  0  0  0
 15 16  2  0  0  0  0
 15 17  1  0  0  0  0
 17 18  1  0  0  0  0
 18 19  1  0  0  0  0
 18 23  1  0  0  0  0
 19 20  4  0  0  0  0
 20 21  4  0  0  0  0
 21 22  4  0  0  0  0
 23 24  4  0  0  0  0
 23 28  4  0  0  0  0
 24 25  4  0  0  0  0
 25 26  4  0  0  0  0
 26 27  4  0  0  0  0
 27 28  4  0  0  0  0
 29 30  4  0  0  0  0
 29 34  4  0  0  0  0
 30 31  4  0  0  0  0
 31 32  4  0  0  0  0
 32 33  4  0  0  0  0
 33 34  4  0  0  0  0
M  END
>  <Name_Molregno>
330378

>  <5-HT2A>
9.74

>  <DOPAMINE D2>
7.82

$$$$
330388
  Marvin  02231216192D 0   1.00000     0.00000     0

 29 33  0  0  1  0  0  0  0  0999 V2000
    4.2152    3.5676    0.0000 O   0  0  0  0  0  0  0  0  0
    3.7303    2.9001    0.0000 N   0  0  0  0  0  0  0  0  0
    4.2152    2.2327    0.0000 C   0  0  0  0  0  0  0  0  0
    3.9603    1.4481    0.0000 N   0  0  0  0  0  0  0  0  0
    4.5123    0.8350    0.0000 C   0  0  0  0  0  0  0  0  0
    4.2574    0.0504    0.0000 C   0  0  0  0  0  0  0  0  0
    3.4504   -0.1212    0.0000 N   0  0  0  0  0  0  0  0  0
    2.8984    0.4919    0.0000 C   0  0  0  0  0  0  0  0  0
    3.1533    1.2766    0.0000 C   0  0  0  0  0  0  0  0  0
    3.1955   -0.9058    0.0000 C   0  0  0  0  0  0  0  0  0
    2.3885   -1.0773    0.0000 C   0  0  0  0  0  0  0  0  0
    2.1336   -1.8619    0.0000 C   0  0  0  0  0  0  0  0  0
    2.6856   -2.4750    0.0000 C   0  0  0  0  0  0  0  0  0
    3.4926   -2.3035    0.0000 N   0  0  0  0  0  0  0  0  0
    4.0446   -2.9166    0.0000 C   0  0  0  0  0  0  0  0  0
    4.8516   -2.7451    0.0000 O   0  0  0  0  0  0  0  0  0
    3.7897   -3.7012    0.0000 C   0  0  0  0  0  0  0  0  0
    2.9827   -3.8727    0.0000 C   0  0  0  0  0  0  0  0  0
    2.4307   -3.2596    0.0000 C   0  0  0  0  0  0  0  0  0
    1.6237   -3.4312    0.0000 C   0  0  0  0  0  0  0  0  0
    1.0717   -2.8181    0.0000 C   0  0  0  0  0  0  0  0  0
    1.3266   -2.0335    0.0000 C   0  0  0  0  0  0  0  0  0
    2.7278   -4.6574    0.0000 C   0  0  0  0  0  0  0  0  0
    4.9999    2.4876    0.0000 C   0  0  0  0  0  0  0  0  0
    4.9999    3.3126    0.0000 C   0  0  0  0  0  0  0  0  0
    5.7143    3.7251    0.0000 C   0  0  0  0  0  0  0  0  0
    6.4288    3.3126    0.0000 C   0  0  0  0  0  0  0  0  0
    6.4288    2.4876    0.0000 C   0  0  0  0  0  0  0  0  0
    5.7143    2.0751    0.0000 C   0  0  0  0  0  0  0  0  0
  1  2  4  0  0  0  0
  1 25  4  0  0  0  0
  2  3  4  0  0  0  0
  3  4  1  0  0  0  0
  3 24  4  0  0  0  0
  4  5  1  0  0  0  0
  4  9  1  0  0  0  0
  5  6  1  0  0  0  0
  6  7  1  0  0  0  0
  7  8  1  0  0  0  0
  7 10  1  0  0  0  0
  8  9  1  0  0  0  0
 10 11  1  0  0  0  0
 11 12  1  0  0  0  0
 12 13  4  0  0  0  0
 12 22  4  0  0  0  0
 13 14  1  0  0  0  0
 13 19  4  0  0  0  0
 14 15  1  0  0  0  0
 15 16  2  0  0  0  0
 15 17  1  0  0  0  0
 17 18  1  0  0  0  0
 18 19  1  0  0  0  0
 18 23  1  0  0  0  0
 19 20  4  0  0  0  0
 20 21  4  0  0  0  0
 21 22  4  0  0  0  0
 24 25  4  0  0  0  0
 24 29  4  0  0  0  0
 25 26  4  0  0  0  0
 26 27  4  0  0  0  0
 27 28  4  0  0  0  0
 28 29  4  0  0  0  0
M  END
>  <Name_Molregno>
330388

>  <5-HT2A>
6.72

>  <DOPAMINE D2>
7

$$$$
330396
  Marvin  02231216192D 0   1.00000     0.00000     0

 30 34  0  0  1  0  0  0  0  0999 V2000
    4.2828    2.8552    0.0000 S   0  0  0  0  0  0  0  0  0
    3.7978    2.1878    0.0000 N   0  0  0  0  0  0  0  0  0
    4.2828    1.5203    0.0000 C   0  0  0  0  0  0  0  0  0
    4.0278    0.7357    0.0000 N   0  0  0  0  0  0  0  0  0
    4.5798    0.1226    0.0000 C   0  0  0  0  0  0  0  0  0
    4.3249   -0.6620    0.0000 C   0  0  0  0  0  0  0  0  0
    3.5179   -0.8335    0.0000 N   0  0  0  0  0  0  0  0  0
    2.9659   -0.2204    0.0000 C   0  0  0  0  0  0  0  0  0
    3.2208    0.5642    0.0000 C   0  0  0  0  0  0  0  0  0
    3.2630   -1.6182    0.0000 C   0  0  0  0  0  0  0  0  0
    2.4560   -1.7897    0.0000 C   0  0  0  0  0  0  0  0  0
    2.2011   -2.5743    0.0000 C   0  0  0  0  0  0  0  0  0
    2.7531   -3.1874    0.0000 C   0  0  0  0  0  0  0  0  0
    3.5601   -3.0159    0.0000 N   0  0  0  0  0  0  0  0  0
    4.1121   -3.6290    0.0000 C   0  0  0  0  0  0  0  0  0
    4.9191   -3.4574    0.0000 O   0  0  0  0  0  0  0  0  0
    3.8572   -4.4136    0.0000 C   0  0  0  0  0  0  0  0  0
    3.0502   -4.5851    0.0000 C   0  0  0  0  0  0  0  0  0
    2.4982   -3.9720    0.0000 C   0  0  0  0  0  0  0  0  0
    1.6912   -4.1436    0.0000 C   0  0  0  0  0  0  0  0  0
    1.1392   -3.5305    0.0000 C   0  0  0  0  0  0  0  0  0
    1.3941   -2.7458    0.0000 C   0  0  0  0  0  0  0  0  0
    1.4363   -4.9282    0.0000 C   0  0  0  0  0  0  0  0  0
    2.7953   -5.3697    0.0000 C   0  0  0  0  0  0  0  0  0
    5.0674    1.7753    0.0000 C   0  0  0  0  0  0  0  0  0
    5.0674    2.6003    0.0000 C   0  0  0  0  0  0  0  0  0
    5.7818    3.0128    0.0000 C   0  0  0  0  0  0  0  0  0
    6.4963    2.6003    0.0000 C   0  0  0  0  0  0  0  0  0
    6.4963    1.7753    0.0000 C   0  0  0  0  0  0  0  0  0
    5.7818    1.3628    0.0000 C   0  0  0  0  0  0  0  0  0
  1  2  4  0  0  0  0
  1 26  4  0  0  0  0
  2  3  4  0  0  0  0
  3  4  1  0  0  0  0
  3 25  4  0  0  0  0
  4  5  1  0  0  0  0
  4  9  1  0  0  0  0
  5  6  1  0  0  0  0
  6  7  1  0  0  0  0
  7  8  1  0  0  0  0
  7 10  1  0  0  0  0
  8  9  1  0  0  0  0
 10 11  1  0  0  0  0
 11 12  1  0  0  0  0
 12 13  4  0  0  0  0
 12 22  4  0  0  0  0
 13 14  1  0  0  0  0
 13 19  4  0  0  0  0
 14 15  1  0  0  0  0
 15 16  2  0  0  0  0
 15 17  1  0  0  0  0
 17 18  1  0  0  0  0
 18 19  1  0  0  0  0
 18 24  1  0  0  0  0
 19 20  4  0  0  0  0
 20 21  4  0  0  0  0
 20 23  1  0  0  0  0
 21 22  4  0  0  0  0
 25 26  4  0  0  0  0
 25 30  4  0  0  0  0
 26 27  4  0  0  0  0
 27 28  4  0  0  0  0
 28 29  4  0  0  0  0
 29 30  4  0  0  0  0
M  END
>  <Name_Molregno>
330396

>  <5-HT2A>
9.89

>  <DOPAMINE D2>
7.96

$$$$
330397
  Marvin  02231216192D 0   1.00000     0.00000     0

 31 35  0  0  1  0  0  0  0  0999 V2000
    4.1375    2.6938    0.0000 S   0  0  0  0  0  0  0  0  0
    3.8825    3.4784    0.0000 O   0  0  0  0  0  0  0  0  0
    3.6525    2.0264    0.0000 N   0  0  0  0  0  0  0  0  0
    4.1375    1.3589    0.0000 C   0  0  0  0  0  0  0  0  0
    3.8825    0.5743    0.0000 N   0  0  0  0  0  0  0  0  0
    4.4346   -0.0388    0.0000 C   0  0  0  0  0  0  0  0  0
    4.1796   -0.8234    0.0000 C   0  0  0  0  0  0  0  0  0
    3.3726   -0.9949    0.0000 N   0  0  0  0  0  0  0  0  0
    2.8206   -0.3818    0.0000 C   0  0  0  0  0  0  0  0  0
    3.0755    0.4028    0.0000 C   0  0  0  0  0  0  0  0  0
    3.1177   -1.7796    0.0000 C   0  0  0  0  0  0  0  0  0
    2.3107   -1.9511    0.0000 C   0  0  0  0  0  0  0  0  0
    2.0558   -2.7357    0.0000 C   0  0  0  0  0  0  0  0  0
    1.2488   -2.9072    0.0000 C   0  0  0  0  0  0  0  0  0
    0.9939   -3.6919    0.0000 C   0  0  0  0  0  0  0  0  0
    0.1869   -3.8634    0.0000 F   0  0  0  0  0  0  0  0  0
    1.5459   -4.3049    0.0000 C   0  0  0  0  0  0  0  0  0
    2.3529   -4.1334    0.0000 C   0  0  0  0  0  0  0  0  0
    2.6078   -3.3488    0.0000 C   0  0  0  0  0  0  0  0  0
    3.4148   -3.1773    0.0000 N   0  0  0  0  0  0  0  0  0
    3.9668   -3.7904    0.0000 C   0  0  0  0  0  0  0  0  0
    4.7738   -3.6188    0.0000 O   0  0  0  0  0  0  0  0  0
    3.7119   -4.5750    0.0000 C   0  0  0  0  0  0  0  0  0
    2.9049   -4.7465    0.0000 C   0  0  0  0  0  0  0  0  0
    2.6500   -5.5311    0.0000 C   0  0  0  0  0  0  0  0  0
    4.9221    1.6139    0.0000 C   0  0  0  0  0  0  0  0  0
    4.9221    2.4389    0.0000 C   0  0  0  0  0  0  0  0  0
    5.6366    2.8514    0.0000 C   0  0  0  0  0  0  0  0  0
    6.3510    2.4389    0.0000 C   0  0  0  0  0  0  0  0  0
    6.3510    1.6139    0.0000 C   0  0  0  0  0  0  0  0  0
    5.6366    1.2014    0.0000 C   0  0  0  0  0  0  0  0  0
  1  2  2  0  0  0  0
  1  3  1  0  0  0  0
  1 27  1  0  0  0  0
  3  4  2  0  0  0  0
  4  5  1  0  0  0  0
  4 26  1  0  0  0  0
  5  6  1  0  0  0  0
  5 10  1  0  0  0  0
  6  7  1  0  0  0  0
  7  8  1  0  0  0  0
  8  9  1  0  0  0  0
  8 11  1  0  0  0  0
  9 10  1  0  0  0  0
 11 12  1  0  0  0  0
 12 13  1  0  0  0  0
 13 14  4  0  0  0  0
 13 19  4  0  0  0  0
 14 15  4  0  0  0  0
 15 16  1  0  0  0  0
 15 17  4  0  0  0  0
 17 18  4  0  0  0  0
 18 19  4  0  0  0  0
 18 24  1  0  0  0  0
 19 20  1  0  0  0  0
 20 21  1  0  0  0  0
 21 22  2  0  0  0  0
 21 23  1  0  0  0  0
 23 24  1  0  0  0  0
 24 25  1  0  0  0  0
 26 27  4  0  0  0  0
 26 31  4  0  0  0  0
 27 28  4  0  0  0  0
 28 29  4  0  0  0  0
 29 30  4  0  0  0  0
 30 31  4  0  0  0  0
M  END
>  <Name_Molregno>
330397

>  <5-HT2A>
8.65

>  <DOPAMINE D2>
7.04

$$$$
330406
  Marvin  02231216192D 0   1.00000     0.00000     0

 30 34  0  0  1  0  0  0  0  0999 V2000
    4.2661    5.1297    0.0000 O   0  0  0  0  0  0  0  0  0
    3.7812    4.4623    0.0000 N   0  0  0  0  0  0  0  0  0
    4.2661    3.7949    0.0000 C   0  0  0  0  0  0  0  0  0
    4.0111    3.0102    0.0000 N   0  0  0  0  0  0  0  0  0
    4.5632    2.3971    0.0000 C   0  0  0  0  0  0  0  0  0
    4.3082    1.6125    0.0000 C   0  0  0  0  0  0  0  0  0
    3.5013    1.4410    0.0000 N   0  0  0  0  0  0  0  0  0
    2.9492    2.0541    0.0000 C   0  0  0  0  0  0  0  0  0
    3.2042    2.8387    0.0000 C   0  0  0  0  0  0  0  0  0
    3.2463    0.6564    0.0000 C   0  0  0  0  0  0  0  0  0
    2.4393    0.4848    0.0000 C   0  0  0  0  0  0  0  0  0
    2.1844   -0.2998    0.0000 C   0  0  0  0  0  0  0  0  0
    1.3774   -0.4713    0.0000 C   0  0  0  0  0  0  0  0  0
    1.1225   -1.2559    0.0000 C   0  0  0  0  0  0  0  0  0
    1.6745   -1.8690    0.0000 C   0  0  0  0  0  0  0  0  0
    2.4815   -1.6975    0.0000 C   0  0  0  0  0  0  0  0  0
    2.7364   -0.9129    0.0000 C   0  0  0  0  0  0  0  0  0
    3.5434   -0.7413    0.0000 N   0  0  0  0  0  0  0  0  0
    4.0954   -1.3544    0.0000 C   0  0  0  0  0  0  0  0  0
    4.9024   -1.1829    0.0000 O   0  0  0  0  0  0  0  0  0
    3.8405   -2.1391    0.0000 C   0  0  0  0  0  0  0  0  0
    3.0335   -2.3106    0.0000 C   0  0  0  0  0  0  0  0  0
    2.7786   -3.0952    0.0000 C   0  0  0  0  0  0  0  0  0
    0.3155   -1.4275    0.0000 C   0  0  0  0  0  0  0  0  0
    5.0507    4.0498    0.0000 C   0  0  0  0  0  0  0  0  0
    5.0507    4.8748    0.0000 C   0  0  0  0  0  0  0  0  0
    5.7652    5.2873    0.0000 C   0  0  0  0  0  0  0  0  0
    6.4796    4.8748    0.0000 C   0  0  0  0  0  0  0  0  0
    6.4796    4.0498    0.0000 C   0  0  0  0  0  0  0  0  0
    5.7652    3.6373    0.0000 C   0  0  0  0  0  0  0  0  0
  1  2  4  0  0  0  0
  1 26  4  0  0  0  0
  2  3  4  0  0  0  0
  3  4  1  0  0  0  0
  3 25  4  0  0  0  0
  4  5  1  0  0  0  0
  4  9  1  0  0  0  0
  5  6  1  0  0  0  0
  6  7  1  0  0  0  0
  7  8  1  0  0  0  0
  7 10  1  0  0  0  0
  8  9  1  0  0  0  0
 10 11  1  0  0  0  0
 11 12  1  0  0  0  0
 12 13  4  0  0  0  0
 12 17  4  0  0  0  0
 13 14  4  0  0  0  0
 14 15  4  0  0  0  0
 14 24  1  0  0  0  0
 15 16  4  0  0  0  0
 16 17  4  0  0  0  0
 16 22  1  0  0  0  0
 17 18  1  0  0  0  0
 18 19  1  0  0  0  0
 19 20  2  0  0  0  0
 19 21  1  0  0  0  0
 21 22  1  0  0  0  0
 22 23  1  0  0  0  0
 25 26  4  0  0  0  0
 25 30  4  0  0  0  0
 26 27  4  0  0  0  0
 27 28  4  0  0  0  0
 28 29  4  0  0  0  0
 29 30  4  0  0  0  0
M  END
>  <Name_Molregno>
330406

>  <5-HT2A>
9.55

>  <DOPAMINE D2>
7.46

$$$$
330407
  Marvin  02231216192D 0   1.00000     0.00000     0

 30 34  0  0  1  0  0  0  0  0999 V2000
   -3.4069    2.5781    0.0000 Cl  0  0  0  0  0  0  0  0  0
   -3.9589    1.9650    0.0000 C   0  0  0  0  0  0  0  0  0
   -3.7040    1.1803    0.0000 C   0  0  0  0  0  0  0  0  0
   -4.2560    0.5673    0.0000 C   0  0  0  0  0  0  0  0  0
   -5.0630    0.7388    0.0000 C   0  0  0  0  0  0  0  0  0
   -5.6150    0.1257    0.0000 N   0  0  0  0  0  0  0  0  0
   -6.4220    0.2972    0.0000 C   0  0  0  0  0  0  0  0  0
   -6.9740   -0.3159    0.0000 O   0  0  0  0  0  0  0  0  0
   -6.6769    1.0818    0.0000 C   0  0  0  0  0  0  0  0  0
   -6.1249    1.6949    0.0000 C   0  0  0  0  0  0  0  0  0
   -5.3179    1.5234    0.0000 C   0  0  0  0  0  0  0  0  0
   -4.7659    2.1365    0.0000 C   0  0  0  0  0  0  0  0  0
   -6.3799    2.4795    0.0000 C   0  0  0  0  0  0  0  0  0
   -4.0011   -0.2174    0.0000 C   0  0  0  0  0  0  0  0  0
   -3.1941   -0.3889    0.0000 C   0  0  0  0  0  0  0  0  0
   -2.9392   -1.1735    0.0000 N   0  0  0  0  0  0  0  0  0
   -2.1322   -1.3450    0.0000 C   0  0  0  0  0  0  0  0  0
   -1.8773   -2.1297    0.0000 C   0  0  0  0  0  0  0  0  0
   -2.4293   -2.7428    0.0000 N   0  0  0  0  0  0  0  0  0
   -3.2363   -2.5712    0.0000 C   0  0  0  0  0  0  0  0  0
   -3.4912   -1.7866    0.0000 C   0  0  0  0  0  0  0  0  0
   -2.1744   -3.5274    0.0000 C   0  0  0  0  0  0  0  0  0
   -2.6593   -4.1948    0.0000 N   0  0  0  0  0  0  0  0  0
   -2.1744   -4.8623    0.0000 S   0  0  0  0  0  0  0  0  0
   -1.3897   -4.6073    0.0000 C   0  0  0  0  0  0  0  0  0
   -1.3897   -3.7823    0.0000 C   0  0  0  0  0  0  0  0  0
   -0.6753   -3.3698    0.0000 C   0  0  0  0  0  0  0  0  0
    0.0392   -3.7823    0.0000 C   0  0  0  0  0  0  0  0  0
    0.0392   -4.6073    0.0000 C   0  0  0  0  0  0  0  0  0
   -0.6753   -5.0198    0.0000 C   0  0  0  0  0  0  0  0  0
  1  2  1  0  0  0  0
  2  3  4  0  0  0  0
  2 12  4  0  0  0  0
  3  4  4  0  0  0  0
  4  5  4  0  0  0  0
  4 14  1  0  0  0  0
  5  6  1  0  0  0  0
  5 11  4  0  0  0  0
  6  7  1  0  0  0  0
  7  8  2  0  0  0  0
  7  9  1  0  0  0  0
  9 10  1  0  0  0  0
 10 11  1  0  0  0  0
 10 13  1  0  0  0  0
 11 12  4  0  0  0  0
 14 15  1  0  0  0  0
 15 16  1  0  0  0  0
 16 17  1  0  0  0  0
 16 21  1  0  0  0  0
 17 18  1  0  0  0  0
 18 19  1  0  0  0  0
 19 20  1  0  0  0  0
 19 22  1  0  0  0  0
 20 21  1  0  0  0  0
 22 23  4  0  0  0  0
 22 26  4  0  0  0  0
 23 24  4  0  0  0  0
 24 25  4  0  0  0  0
 25 26  4  0  0  0  0
 25 30  4  0  0  0  0
 26 27  4  0  0  0  0
 27 28  4  0  0  0  0
 28 29  4  0  0  0  0
 29 30  4  0  0  0  0
M  END
>  <Name_Molregno>
330407

>  <5-HT2A>
10.3

>  <DOPAMINE D2>
7

$$$$
330414
  Marvin  02231216192D 0   1.00000     0.00000     0

 30 34  0  0  1  0  0  0  0  0999 V2000
   -3.4069    2.5781    0.0000 F   0  0  0  0  0  0  0  0  0
   -3.9589    1.9650    0.0000 C   0  0  0  0  0  0  0  0  0
   -3.7040    1.1803    0.0000 C   0  0  0  0  0  0  0  0  0
   -4.2560    0.5673    0.0000 C   0  0  0  0  0  0  0  0  0
   -5.0630    0.7388    0.0000 C   0  0  0  0  0  0  0  0  0
   -5.6150    0.1257    0.0000 N   0  0  0  0  0  0  0  0  0
   -6.4220    0.2972    0.0000 C   0  0  0  0  0  0  0  0  0
   -6.9740   -0.3159    0.0000 O   0  0  0  0  0  0  0  0  0
   -6.6769    1.0818    0.0000 C   0  0  0  0  0  0  0  0  0
   -6.1249    1.6949    0.0000 C   0  0  0  0  0  0  0  0  0
   -5.3179    1.5234    0.0000 C   0  0  0  0  0  0  0  0  0
   -4.7659    2.1365    0.0000 C   0  0  0  0  0  0  0  0  0
   -6.3799    2.4795    0.0000 C   0  0  0  0  0  0  0  0  0
   -4.0011   -0.2174    0.0000 C   0  0  0  0  0  0  0  0  0
   -3.1941   -0.3889    0.0000 C   0  0  0  0  0  0  0  0  0
   -2.9392   -1.1735    0.0000 N   0  0  0  0  0  0  0  0  0
   -2.1322   -1.3450    0.0000 C   0  0  0  0  0  0  0  0  0
   -1.8773   -2.1297    0.0000 C   0  0  0  0  0  0  0  0  0
   -2.4293   -2.7428    0.0000 N   0  0  0  0  0  0  0  0  0
   -3.2363   -2.5712    0.0000 C   0  0  0  0  0  0  0  0  0
   -3.4912   -1.7866    0.0000 C   0  0  0  0  0  0  0  0  0
   -2.1744   -3.5274    0.0000 C   0  0  0  0  0  0  0  0  0
   -2.6593   -4.1948    0.0000 N   0  0  0  0  0  0  0  0  0
   -2.1744   -4.8623    0.0000 O   0  0  0  0  0  0  0  0  0
   -1.3897   -4.6073    0.0000 C   0  0  0  0  0  0  0  0  0
   -1.3897   -3.7823    0.0000 C   0  0  0  0  0  0  0  0  0
   -0.6753   -3.3698    0.0000 C   0  0  0  0  0  0  0  0  0
    0.0392   -3.7823    0.0000 C   0  0  0  0  0  0  0  0  0
    0.0392   -4.6073    0.0000 C   0  0  0  0  0  0  0  0  0
   -0.6753   -5.0198    0.0000 C   0  0  0  0  0  0  0  0  0
  1  2  1  0  0  0  0
  2  3  4  0  0  0  0
  2 12  4  0  0  0  0
  3  4  4  0  0  0  0
  4  5  4  0  0  0  0
  4 14  1  0  0  0  0
  5  6  1  0  0  0  0
  5 11  4  0  0  0  0
  6  7  1  0  0  0  0
  7  8  2  0  0  0  0
  7  9  1  0  0  0  0
  9 10  1  0  0  0  0
 10 11  1  0  0  0  0
 10 13  1  0  0  0  0
 11 12  4  0  0  0  0
 14 15  1  0  0  0  0
 15 16  1  0  0  0  0
 16 17  1  0  0  0  0
 16 21  1  0  0  0  0
 17 18  1  0  0  0  0
 18 19  1  0  0  0  0
 19 20  1  0  0  0  0
 19 22  1  0  0  0  0
 20 21  1  0  0  0  0
 22 23  4  0  0  0  0
 22 26  4  0  0  0  0
 23 24  4  0  0  0  0
 24 25  4  0  0  0  0
 25 26  4  0  0  0  0
 25 30  4  0  0  0  0
 26 27  4  0  0  0  0
 27 28  4  0  0  0  0
 28 29  4  0  0  0  0
 29 30  4  0  0  0  0
M  END
>  <Name_Molregno>
330414

>  <5-HT2A>
9.55

>  <DOPAMINE D2>
7

$$$$
330415
  Marvin  02231216192D 0   1.00000     0.00000     0

 29 33  0  0  0  0  0  0  0  0999 V2000
    4.1944    2.7576    0.0000 S   0  0  0  0  0  0  0  0  0
    3.7095    2.0901    0.0000 N   0  0  0  0  0  0  0  0  0
    4.1944    1.4227    0.0000 C   0  0  0  0  0  0  0  0  0
    3.9394    0.6381    0.0000 N   0  0  0  0  0  0  0  0  0
    4.4915    0.0250    0.0000 C   0  0  0  0  0  0  0  0  0
    4.2365   -0.7597    0.0000 C   0  0  0  0  0  0  0  0  0
    3.4296   -0.9312    0.0000 N   0  0  0  0  0  0  0  0  0
    2.8775   -0.3181    0.0000 C   0  0  0  0  0  0  0  0  0
    3.1325    0.4665    0.0000 C   0  0  0  0  0  0  0  0  0
    3.1746   -1.7158    0.0000 C   0  0  0  0  0  0  0  0  0
    2.3677   -1.8873    0.0000 C   0  0  0  0  0  0  0  0  0
    2.1127   -2.6720    0.0000 C   0  0  0  0  0  0  0  0  0
    2.6647   -3.2850    0.0000 C   0  0  0  0  0  0  0  0  0
    3.4717   -3.1135    0.0000 N   0  0  0  0  0  0  0  0  0
    4.0238   -3.7266    0.0000 C   0  0  0  0  0  0  0  0  0
    3.7688   -4.5112    0.0000 C   0  0  0  0  0  0  0  0  0
    2.9618   -4.6828    0.0000 C   0  0  0  0  0  0  0  0  0
    2.4098   -4.0697    0.0000 C   0  0  0  0  0  0  0  0  0
    1.6028   -4.2412    0.0000 C   0  0  0  0  0  0  0  0  0
    1.0508   -3.6281    0.0000 C   0  0  0  0  0  0  0  0  0
    1.3057   -2.8435    0.0000 C   0  0  0  0  0  0  0  0  0
    3.1051   -5.4952    0.0000 C   0  0  0  0  0  0  0  0  0
    2.3684   -5.2559    0.0000 C   0  0  0  0  0  0  0  0  0
    4.9790    1.6776    0.0000 C   0  0  0  0  0  0  0  0  0
    4.9790    2.5026    0.0000 C   0  0  0  0  0  0  0  0  0
    5.6935    2.9151    0.0000 C   0  0  0  0  0  0  0  0  0
    6.4079    2.5026    0.0000 C   0  0  0  0  0  0  0  0  0
    6.4079    1.6776    0.0000 C   0  0  0  0  0  0  0  0  0
    5.6935    1.2651    0.0000 C   0  0  0  0  0  0  0  0  0
  1  2  4  0  0  0  0
  1 25  4  0  0  0  0
  2  3  4  0  0  0  0
  3  4  1  0  0  0  0
  3 24  4  0  0  0  0
  4  5  1  0  0  0  0
  4  9  1  0  0  0  0
  5  6  1  0  0  0  0
  6  7  1  0  0  0  0
  7  8  1  0  0  0  0
  7 10  1  0  0  0  0
  8  9  1  0  0  0  0
 10 11  1  0  0  0  0
 11 12  1  0  0  0  0
 12 13  4  0  0  0  0
 12 21  4  0  0  0  0
 13 14  1  0  0  0  0
 13 18  4  0  0  0  0
 14 15  1  0  0  0  0
 15 16  1  0  0  0  0
 16 17  1  0  0  0  0
 17 18  1  0  0  0  0
 17 22  1  0  0  0  0
 17 23  1  0  0  0  0
 18 19  4  0  0  0  0
 19 20  4  0  0  0  0
 20 21  4  0  0  0  0
 24 25  4  0  0  0  0
 24 29  4  0  0  0  0
 25 26  4  0  0  0  0
 26 27  4  0  0  0  0
 27 28  4  0  0  0  0
 28 29  4  0  0  0  0
M  END
>  <Name_Molregno>
330415

>  <5-HT2A>
9.74

>  <DOPAMINE D2>
7.23

$$$$
330426
  Marvin  02231216192D 0   1.00000     0.00000     0

 30 34  0  0  0  0  0  0  0  0999 V2000
    4.3937    2.7402    0.0000 S   0  0  0  0  0  0  0  0  0
    3.9088    2.0727    0.0000 N   0  0  0  0  0  0  0  0  0
    4.3937    1.4053    0.0000 C   0  0  0  0  0  0  0  0  0
    4.1387    0.6207    0.0000 N   0  0  0  0  0  0  0  0  0
    4.6908    0.0076    0.0000 C   0  0  0  0  0  0  0  0  0
    4.4358   -0.7770    0.0000 C   0  0  0  0  0  0  0  0  0
    3.6289   -0.9486    0.0000 N   0  0  0  0  0  0  0  0  0
    3.0768   -0.3355    0.0000 C   0  0  0  0  0  0  0  0  0
    3.3318    0.4492    0.0000 C   0  0  0  0  0  0  0  0  0
    3.3739   -1.7332    0.0000 C   0  0  0  0  0  0  0  0  0
    2.5670   -1.9047    0.0000 C   0  0  0  0  0  0  0  0  0
    2.3120   -2.6893    0.0000 C   0  0  0  0  0  0  0  0  0
    1.5050   -2.8609    0.0000 C   0  0  0  0  0  0  0  0  0
    1.2501   -3.6455    0.0000 C   0  0  0  0  0  0  0  0  0
    0.4431   -3.8170    0.0000 F   0  0  0  0  0  0  0  0  0
    1.8021   -4.2586    0.0000 C   0  0  0  0  0  0  0  0  0
    2.6091   -4.0871    0.0000 C   0  0  0  0  0  0  0  0  0
    2.8640   -3.3024    0.0000 C   0  0  0  0  0  0  0  0  0
    3.6710   -3.1309    0.0000 N   0  0  0  0  0  0  0  0  0
    4.2231   -3.7440    0.0000 C   0  0  0  0  0  0  0  0  0
    3.9681   -4.5286    0.0000 C   0  0  0  0  0  0  0  0  0
    3.1611   -4.7001    0.0000 C   0  0  0  0  0  0  0  0  0
    2.5677   -5.2732    0.0000 C   0  0  0  0  0  0  0  0  0
    3.3044   -5.5126    0.0000 C   0  0  0  0  0  0  0  0  0
    5.1783    1.6602    0.0000 C   0  0  0  0  0  0  0  0  0
    5.1783    2.4852    0.0000 C   0  0  0  0  0  0  0  0  0
    5.8928    2.8977    0.0000 C   0  0  0  0  0  0  0  0  0
    6.6072    2.4852    0.0000 C   0  0  0  0  0  0  0  0  0
    6.6072    1.6602    0.0000 C   0  0  0  0  0  0  0  0  0
    5.8928    1.2477    0.0000 C   0  0  0  0  0  0  0  0  0
  1  2  4  0  0  0  0
  1 26  4  0  0  0  0
  2  3  4  0  0  0  0
  3  4  1  0  0  0  0
  3 25  4  0  0  0  0
  4  5  1  0  0  0  0
  4  9  1  0  0  0  0
  5  6  1  0  0  0  0
  6  7  1  0  0  0  0
  7  8  1  0  0  0  0
  7 10  1  0  0  0  0
  8  9  1  0  0  0  0
 10 11  1  0  0  0  0
 11 12  1  0  0  0  0
 12 13  4  0  0  0  0
 12 18  4  0  0  0  0
 13 14  4  0  0  0  0
 14 15  1  0  0  0  0
 14 16  4  0  0  0  0
 16 17  4  0  0  0  0
 17 18  4  0  0  0  0
 17 22  1  0  0  0  0
 18 19  1  0  0  0  0
 19 20  1  0  0  0  0
 20 21  1  0  0  0  0
 21 22  1  0  0  0  0
 22 23  1  0  0  0  0
 22 24  1  0  0  0  0
 25 26  4  0  0  0  0
 25 30  4  0  0  0  0
 26 27  4  0  0  0  0
 27 28  4  0  0  0  0
 28 29  4  0  0  0  0
 29 30  4  0  0  0  0
M  END
>  <Name_Molregno>
330426

>  <5-HT2A>
9.55

>  <DOPAMINE D2>
7.26

$$$$
330438
  Marvin  02231216192D 0   1.00000     0.00000     0

 31 35  0  0  1  0  0  0  0  0999 V2000
    4.9902    1.7453    0.0000 S   0  0  0  0  0  0  0  0  0
    4.5053    1.0779    0.0000 N   0  0  0  0  0  0  0  0  0
    4.9902    0.4104    0.0000 C   0  0  0  0  0  0  0  0  0
    4.7353   -0.3742    0.0000 N   0  0  0  0  0  0  0  0  0
    5.2873   -0.9873    0.0000 C   0  0  0  0  0  0  0  0  0
    5.0324   -1.7719    0.0000 C   0  0  0  0  0  0  0  0  0
    4.2254   -1.9434    0.0000 N   0  0  0  0  0  0  0  0  0
    3.6734   -1.3303    0.0000 C   0  0  0  0  0  0  0  0  0
    3.9283   -0.5457    0.0000 C   0  0  0  0  0  0  0  0  0
    3.9705   -2.7281    0.0000 C   0  0  0  0  0  0  0  0  0
    3.1635   -2.8996    0.0000 C   0  0  0  0  0  0  0  0  0
    2.6115   -2.2865    0.0000 C   0  0  0  0  0  0  0  0  0
    1.8045   -2.4580    0.0000 C   0  0  0  0  0  0  0  0  0
    1.5496   -3.2426    0.0000 N   0  0  0  0  0  0  0  0  0
    0.7426   -3.4142    0.0000 C   0  0  0  0  0  0  0  0  0
    0.1905   -2.8011    0.0000 C   0  0  0  0  0  0  0  0  0
    0.4455   -2.0164    0.0000 C   0  0  0  0  0  0  0  0  0
    1.2525   -1.8449    0.0000 C   0  0  0  0  0  0  0  0  0
    1.5074   -1.0603    0.0000 C   0  0  0  0  0  0  0  0  0
    2.3144   -0.8888    0.0000 C   0  0  0  0  0  0  0  0  0
    2.8664   -1.5019    0.0000 C   0  0  0  0  0  0  0  0  0
   -0.1065   -1.4033    0.0000 C   0  0  0  0  0  0  0  0  0
    2.1016   -3.8557    0.0000 C   0  0  0  0  0  0  0  0  0
    1.8466   -4.6403    0.0000 O   0  0  0  0  0  0  0  0  0
    2.9086   -3.6842    0.0000 C   0  0  0  0  0  0  0  0  0
    5.7748    0.6654    0.0000 C   0  0  0  0  0  0  0  0  0
    5.7748    1.4904    0.0000 C   0  0  0  0  0  0  0  0  0
    6.4893    1.9029    0.0000 C   0  0  0  0  0  0  0  0  0
    7.2038    1.4904    0.0000 C   0  0  0  0  0  0  0  0  0
    7.2038    0.6654    0.0000 C   0  0  0  0  0  0  0  0  0
    6.4893    0.2529    0.0000 C   0  0  0  0  0  0  0  0  0
  1  2  4  0  0  0  0
  1 27  4  0  0  0  0
  2  3  4  0  0  0  0
  3  4  1  0  0  0  0
  3 26  4  0  0  0  0
  4  5  1  0  0  0  0
  4  9  1  0  0  0  0
  5  6  1  0  0  0  0
  6  7  1  0  0  0  0
  7  8  1  0  0  0  0
  7 10  1  0  0  0  0
  8  9  1  0  0  0  0
 10 11  1  0  0  0  0
 11 12  1  0  0  0  0
 12 13  4  0  0  0  0
 12 21  4  0  0  0  0
 13 14  1  0  0  0  0
 13 18  4  0  0  0  0
 14 15  1  0  0  0  0
 14 23  1  0  0  0  0
 15 16  1  0  0  0  0
 16 17  1  0  0  0  0
 17 18  1  0  0  0  0
 17 22  1  0  0  0  0
 18 19  4  0  0  0  0
 19 20  4  0  0  0  0
 20 21  4  0  0  0  0
 23 24  2  0  0  0  0
 23 25  1  0  0  0  0
 26 27  4  0  0  0  0
 26 31  4  0  0  0  0
 27 28  4  0  0  0  0
 28 29  4  0  0  0  0
 29 30  4  0  0  0  0
 30 31  4  0  0  0  0
M  END
>  <Name_Molregno>
330438

>  <5-HT2A>
9.52

>  <DOPAMINE D2>
7.77

$$$$
330440
  Marvin  02231216192D 0   1.00000     0.00000     0

 41 46  0  0  1  0  0  0  0  0999 V2000
    5.6001    3.7603    0.0000 S   0  0  0  0  0  0  0  0  0
    5.1152    3.0929    0.0000 N   0  0  0  0  0  0  0  0  0
    5.6001    2.4255    0.0000 C   0  0  0  0  0  0  0  0  0
    5.3452    1.6408    0.0000 N   0  0  0  0  0  0  0  0  0
    5.8972    1.0277    0.0000 C   0  0  0  0  0  0  0  0  0
    5.6423    0.2431    0.0000 C   0  0  0  0  0  0  0  0  0
    4.8353    0.0716    0.0000 N   0  0  0  0  0  0  0  0  0
    4.2833    0.6847    0.0000 C   0  0  0  0  0  0  0  0  0
    4.5382    1.4693    0.0000 C   0  0  0  0  0  0  0  0  0
    4.5804   -0.7130    0.0000 C   0  0  0  0  0  0  0  0  0
    3.7734   -0.8846    0.0000 C   0  0  0  0  0  0  0  0  0
    3.2214   -0.2715    0.0000 C   0  0  0  0  0  0  0  0  0
    2.4144   -0.4430    0.0000 C   0  0  0  0  0  0  0  0  0
    2.1595   -1.2276    0.0000 N   0  0  0  0  0  0  0  0  0
    1.3525   -1.3991    0.0000 C   0  0  0  0  0  0  0  0  0
    0.8005   -0.7860    0.0000 C   0  0  0  0  0  0  0  0  0
    1.0554   -0.0014    0.0000 C   0  0  0  0  0  0  0  0  0
    1.8624    0.1701    0.0000 C   0  0  0  0  0  0  0  0  0
    2.1173    0.9547    0.0000 C   0  0  0  0  0  0  0  0  0
    2.9243    1.1263    0.0000 C   0  0  0  0  0  0  0  0  0
    3.4763    0.5132    0.0000 C   0  0  0  0  0  0  0  0  0
    0.5034    0.6117    0.0000 C   0  0  0  0  0  0  0  0  0
    2.7115   -1.8407    0.0000 C   0  0  0  0  0  0  0  0  0
    3.5185   -1.6692    0.0000 O   0  0  0  0  0  0  0  0  0
    2.4566   -2.6253    0.0000 C   0  0  0  0  0  0  0  0  0
    3.0086   -3.2384    0.0000 C   0  0  0  0  0  0  0  0  0
    3.8156   -3.0669    0.0000 C   0  0  0  0  0  0  0  0  0
    4.0705   -2.2823    0.0000 O   0  0  0  0  0  0  0  0  0
    4.8775   -2.1107    0.0000 C   0  0  0  0  0  0  0  0  0
    4.3676   -3.6800    0.0000 C   0  0  0  0  0  0  0  0  0
    4.1126   -4.4646    0.0000 C   0  0  0  0  0  0  0  0  0
    3.3057   -4.6361    0.0000 C   0  0  0  0  0  0  0  0  0
    2.7536   -4.0230    0.0000 C   0  0  0  0  0  0  0  0  0
    1.9467   -4.1946    0.0000 O   0  0  0  0  0  0  0  0  0
    1.3946   -3.5815    0.0000 C   0  0  0  0  0  0  0  0  0
    6.3847    2.6804    0.0000 C   0  0  0  0  0  0  0  0  0
    6.3847    3.5054    0.0000 C   0  0  0  0  0  0  0  0  0
    7.0992    3.9179    0.0000 C   0  0  0  0  0  0  0  0  0
    7.8137    3.5054    0.0000 C   0  0  0  0  0  0  0  0  0
    7.8137    2.6804    0.0000 C   0  0  0  0  0  0  0  0  0
    7.0992    2.2679    0.0000 C   0  0  0  0  0  0  0  0  0
  1  2  4  0  0  0  0
  1 37  4  0  0  0  0
  2  3  4  0  0  0  0
  3  4  1  0  0  0  0
  3 36  4  0  0  0  0
  4  5  1  0  0  0  0
  4  9  1  0  0  0  0
  5  6  1  0  0  0  0
  6  7  1  0  0  0  0
  7  8  1  0  0  0  0
  7 10  1  0  0  0  0
  8  9  1  0  0  0  0
 10 11  1  0  0  0  0
 11 12  1  0  0  0  0
 12 13  4  0  0  0  0
 12 21  4  0  0  0  0
 13 14  1  0  0  0  0
 13 18  4  0  0  0  0
 14 15  1  0  0  0  0
 14 23  1  0  0  0  0
 15 16  1  0  0  0  0
 16 17  1  0  0  0  0
 17 18  1  0  0  0  0
 17 22  1  0  0  0  0
 18 19  4  0  0  0  0
 19 20  4  0  0  0  0
 20 21  4  0  0  0  0
 23 24  2  0  0  0  0
 23 25  1  0  0  0  0
 25 26  1  0  0  0  0
 26 27  4  0  0  0  0
 26 33  4  0  0  0  0
 27 28  1  0  0  0  0
 27 30  4  0  0  0  0
 28 29  1  0  0  0  0
 30 31  4  0  0  0  0
 31 32  4  0  0  0  0
 32 33  4  0  0  0  0
 33 34  1  0  0  0  0
 34 35  1  0  0  0  0
 36 37  4  0  0  0  0
 36 41  4  0  0  0  0
 37 38  4  0  0  0  0
 38 39  4  0  0  0  0
 39 40  4  0  0  0  0
 40 41  4  0  0  0  0
M  END
>  <Name_Molregno>
330440

>  <5-HT2A>
8.91

>  <DOPAMINE D2>
7.96

$$$$
330449
  Marvin  02231216192D 0   1.00000     0.00000     0

 39 44  0  0  1  0  0  0  0  0999 V2000
    4.6508   -6.0558    0.0000 S   0  0  0  0  0  0  0  0  0
    4.1659   -5.3883    0.0000 N   0  0  0  0  0  0  0  0  0
    4.6508   -4.7209    0.0000 C   0  0  0  0  0  0  0  0  0
    4.3959   -3.9363    0.0000 N   0  0  0  0  0  0  0  0  0
    3.5889   -3.7647    0.0000 C   0  0  0  0  0  0  0  0  0
    3.3340   -2.9801    0.0000 C   0  0  0  0  0  0  0  0  0
    3.8860   -2.3670    0.0000 N   0  0  0  0  0  0  0  0  0
    4.6930   -2.5386    0.0000 C   0  0  0  0  0  0  0  0  0
    4.9479   -3.3232    0.0000 C   0  0  0  0  0  0  0  0  0
    3.6311   -1.5824    0.0000 C   0  0  0  0  0  0  0  0  0
    2.8241   -1.4109    0.0000 C   0  0  0  0  0  0  0  0  0
    2.5692   -0.6263    0.0000 C   0  0  0  0  0  0  0  0  0
    1.7622   -0.4547    0.0000 C   0  0  0  0  0  0  0  0  0
    1.2102   -1.0678    0.0000 N   0  0  0  0  0  0  0  0  0
    0.4032   -0.8963    0.0000 C   0  0  0  0  0  0  0  0  0
    0.1483   -0.1117    0.0000 C   0  0  0  0  0  0  0  0  0
    0.7003    0.5014    0.0000 C   0  0  0  0  0  0  0  0  0
    1.5073    0.3299    0.0000 C   0  0  0  0  0  0  0  0  0
    2.0593    0.9430    0.0000 C   0  0  0  0  0  0  0  0  0
    2.8663    0.7715    0.0000 C   0  0  0  0  0  0  0  0  0
    3.1212   -0.0132    0.0000 C   0  0  0  0  0  0  0  0  0
    0.4454    1.2860    0.0000 C   0  0  0  0  0  0  0  0  0
    1.4651   -1.8524    0.0000 C   0  0  0  0  0  0  0  0  0
    2.2721   -2.0240    0.0000 O   0  0  0  0  0  0  0  0  0
    0.9131   -2.4655    0.0000 C   0  0  0  0  0  0  0  0  0
    1.1680   -3.2502    0.0000 C   0  0  0  0  0  0  0  0  0
    1.9750   -3.4217    0.0000 C   0  0  0  0  0  0  0  0  0
    2.2299   -4.2063    0.0000 C   0  0  0  0  0  0  0  0  0
    3.0369   -4.3778    0.0000 O   0  0  0  0  0  0  0  0  0
    3.2918   -5.1625    0.0000 C   0  0  0  0  0  0  0  0  0
    1.6779   -4.8194    0.0000 C   0  0  0  0  0  0  0  0  0
    0.8709   -4.6479    0.0000 C   0  0  0  0  0  0  0  0  0
    0.6160   -3.8633    0.0000 C   0  0  0  0  0  0  0  0  0
    5.4355   -4.9758    0.0000 C   0  0  0  0  0  0  0  0  0
    5.4355   -5.8008    0.0000 C   0  0  0  0  0  0  0  0  0
    6.1499   -6.2133    0.0000 C   0  0  0  0  0  0  0  0  0
    6.8644   -5.8008    0.0000 C   0  0  0  0  0  0  0  0  0
    6.8644   -4.9758    0.0000 C   0  0  0  0  0  0  0  0  0
    6.1499   -4.5633    0.0000 C   0  0  0  0  0  0  0  0  0
  1  2  4  0  0  0  0
  1 35  4  0  0  0  0
  2  3  4  0  0  0  0
  3  4  1  0  0  0  0
  3 34  4  0  0  0  0
  4  5  1  0  0  0  0
  4  9  1  0  0  0  0
  5  6  1  0  0  0  0
  6  7  1  0  0  0  0
  7  8  1  0  0  0  0
  7 10  1  0  0  0  0
  8  9  1  0  0  0  0
 10 11  1  0  0  0  0
 11 12  1  0  0  0  0
 12 13  4  0  0  0  0
 12 21  4  0  0  0  0
 13 14  1  0  0  0  0
 13 18  4  0  0  0  0
 14 15  1  0  0  0  0
 14 23  1  0  0  0  0
 15 16  1  0  0  0  0
 16 17  1  0  0  0  0
 17 18  1  0  0  0  0
 17 22  1  0  0  0  0
 18 19  4  0  0  0  0
 19 20  4  0  0  0  0
 20 21  4  0  0  0  0
 23 24  2  0  0  0  0
 23 25  1  0  0  0  0
 25 26  1  0  0  0  0
 26 27  4  0  0  0  0
 26 33  4  0  0  0  0
 27 28  4  0  0  0  0
 28 29  1  0  0  0  0
 28 31  4  0  0  0  0
 29 30  1  0  0  0  0
 31 32  4  0  0  0  0
 32 33  4  0  0  0  0
 34 35  4  0  0  0  0
 34 39  4  0  0  0  0
 35 36  4  0  0  0  0
 36 37  4  0  0  0  0
 37 38  4  0  0  0  0
 38 39  4  0  0  0  0
M  END
>  <Name_Molregno>
330449

>  <5-HT2A>
8.97

>  <DOPAMINE D2>
8.4

$$$$
330654
  Marvin  02231216192D 0   1.00000     0.00000     0

 31 34  0  0  0  0  0  0  0  0999 V2000
    0.6937   -3.5381    0.0000 Cl  0  0  0  0  0  0  0  0  0
    0.1417   -2.9250    0.0000 C   0  0  0  0  0  0  0  0  0
   -0.6653   -3.0965    0.0000 C   0  0  0  0  0  0  0  0  0
   -1.2173   -2.4834    0.0000 C   0  0  0  0  0  0  0  0  0
   -0.9624   -1.6988    0.0000 C   0  0  0  0  0  0  0  0  0
   -0.1554   -1.5273    0.0000 C   0  0  0  0  0  0  0  0  0
    0.3966   -2.1404    0.0000 C   0  0  0  0  0  0  0  0  0
    1.2036   -1.9688    0.0000 C   0  0  0  0  0  0  0  0  0
    1.7556   -2.5819    0.0000 C   0  0  0  0  0  0  0  0  0
    2.5626   -2.4104    0.0000 C   0  0  0  0  0  0  0  0  0
    3.1147   -3.0235    0.0000 O   0  0  0  0  0  0  0  0  0
    2.8176   -1.6258    0.0000 N   0  0  0  0  0  0  0  0  0
    2.3326   -0.9583    0.0000 C   0  0  0  0  0  0  0  0  0
    2.8176   -0.2909    0.0000 C   0  0  0  0  0  0  0  0  0
    3.6022   -0.5458    0.0000 C   0  0  0  0  0  0  0  0  0
    4.3166   -0.1333    0.0000 C   0  0  0  0  0  0  0  0  0
    5.0311   -0.5458    0.0000 C   0  0  0  0  0  0  0  0  0
    5.7456   -0.1333    0.0000 O   0  0  0  0  0  0  0  0  0
    6.4601   -0.5458    0.0000 C   0  0  0  0  0  0  0  0  0
    5.0311   -1.3708    0.0000 C   0  0  0  0  0  0  0  0  0
    5.7456   -1.7833    0.0000 O   0  0  0  0  0  0  0  0  0
    5.7456   -2.6083    0.0000 C   0  0  0  0  0  0  0  0  0
    6.4601   -3.0208    0.0000 C   0  0  0  0  0  0  0  0  0
    6.4601   -3.8458    0.0000 N   0  0  0  0  0  0  0  0  0
    7.1745   -4.2583    0.0000 C   0  0  0  0  0  0  0  0  0
    7.1745   -5.0833    0.0000 C   0  0  0  0  0  0  0  0  0
    6.4601   -5.4958    0.0000 C   0  0  0  0  0  0  0  0  0
    5.7456   -5.0833    0.0000 C   0  0  0  0  0  0  0  0  0
    5.7456   -4.2583    0.0000 C   0  0  0  0  0  0  0  0  0
    4.3166   -1.7833    0.0000 C   0  0  0  0  0  0  0  0  0
    3.6022   -1.3708    0.0000 C   0  0  0  0  0  0  0  0  0
  1  2  1  0  0  0  0
  2  3  4  0  0  0  0
  2  7  4  0  0  0  0
  3  4  4  0  0  0  0
  4  5  4  0  0  0  0
  5  6  4  0  0  0  0
  6  7  4  0  0  0  0
  7  8  1  0  0  0  0
  8  9  2  0  0  0  0
  9 10  1  0  0  0  0
 10 11  2  0  0  0  0
 10 12  1  0  0  0  0
 12 13  1  0  0  0  0
 12 31  1  0  0  0  0
 13 14  1  0  0  0  0
 14 15  1  0  0  0  0
 15 16  4  0  0  0  0
 15 31  4  0  0  0  0
 16 17  4  0  0  0  0
 17 18  1  0  0  0  0
 17 20  4  0  0  0  0
 18 19  1  0  0  0  0
 20 21  1  0  0  0  0
 20 30  4  0  0  0  0
 21 22  1  0  0  0  0
 22 23  1  0  0  0  0
 23 24  1  0  0  0  0
 24 25  1  0  0  0  0
 24 29  1  0  0  0  0
 25 26  1  0  0  0  0
 26 27  1  0  0  0  0
 27 28  1  0  0  0  0
 28 29  1  0  0  0  0
 30 31  4  0  0  0  0
M  END
>  <Name_Molregno>
330654

>  <5-HT2A>
6.4

>  <5-HT2C>
9.2

$$$$
330655
  Marvin  02231216192D 0   1.00000     0.00000     0

 34 37  0  0  0  0  0  0  0  0999 V2000
    6.9921    2.6577    0.0000 F   0  0  0  0  0  0  0  0  0
    6.2776    2.2452    0.0000 C   0  0  0  0  0  0  0  0  0
    5.8651    2.9597    0.0000 F   0  0  0  0  0  0  0  0  0
    6.6901    1.5308    0.0000 F   0  0  0  0  0  0  0  0  0
    5.5631    1.8327    0.0000 C   0  0  0  0  0  0  0  0  0
    5.5631    1.0077    0.0000 C   0  0  0  0  0  0  0  0  0
    4.8486    0.5952    0.0000 C   0  0  0  0  0  0  0  0  0
    4.8486   -0.2298    0.0000 N   0  0  0  0  0  0  0  0  0
    5.5161   -0.7147    0.0000 C   0  0  0  0  0  0  0  0  0
    5.2611   -1.4993    0.0000 C   0  0  0  0  0  0  0  0  0
    4.4361   -1.4993    0.0000 N   0  0  0  0  0  0  0  0  0
    3.9512   -2.1667    0.0000 C   0  0  0  0  0  0  0  0  0
    4.2868   -2.9204    0.0000 C   0  0  0  0  0  0  0  0  0
    3.8019   -3.5879    0.0000 C   0  0  0  0  0  0  0  0  0
    4.1374   -4.3415    0.0000 O   0  0  0  0  0  0  0  0  0
    3.6525   -5.0090    0.0000 C   0  0  0  0  0  0  0  0  0
    3.9881   -5.7626    0.0000 C   0  0  0  0  0  0  0  0  0
    3.5031   -6.4301    0.0000 N   0  0  0  0  0  0  0  0  0
    3.8387   -7.1838    0.0000 C   0  0  0  0  0  0  0  0  0
    3.3538   -7.8512    0.0000 C   0  0  0  0  0  0  0  0  0
    2.5333   -7.7650    0.0000 C   0  0  0  0  0  0  0  0  0
    2.1977   -7.0113    0.0000 C   0  0  0  0  0  0  0  0  0
    2.6827   -6.3438    0.0000 C   0  0  0  0  0  0  0  0  0
    2.9814   -3.5016    0.0000 C   0  0  0  0  0  0  0  0  0
    2.4965   -4.1691    0.0000 O   0  0  0  0  0  0  0  0  0
    1.6760   -4.0828    0.0000 C   0  0  0  0  0  0  0  0  0
    2.6458   -2.7479    0.0000 C   0  0  0  0  0  0  0  0  0
    3.1307   -2.0805    0.0000 C   0  0  0  0  0  0  0  0  0
    4.1812   -0.7147    0.0000 C   0  0  0  0  0  0  0  0  0
    3.3966   -0.4597    0.0000 O   0  0  0  0  0  0  0  0  0
    4.1342    1.0077    0.0000 C   0  0  0  0  0  0  0  0  0
    4.1342    1.8327    0.0000 C   0  0  0  0  0  0  0  0  0
    4.8486    2.2452    0.0000 C   0  0  0  0  0  0  0  0  0
    4.8486    3.0702    0.0000 C   0  0  0  0  0  0  0  0  0
  1  2  1  0  0  0  0
  2  3  1  0  0  0  0
  2  4  1  0  0  0  0
  2  5  1  0  0  0  0
  5  6  4  0  0  0  0
  5 33  4  0  0  0  0
  6  7  4  0  0  0  0
  7  8  1  0  0  0  0
  7 31  4  0  0  0  0
  8  9  1  0  0  0  0
  8 29  1  0  0  0  0
  9 10  1  0  0  0  0
 10 11  1  0  0  0  0
 11 12  1  0  0  0  0
 11 29  1  0  0  0  0
 12 13  4  0  0  0  0
 12 28  4  0  0  0  0
 13 14  4  0  0  0  0
 14 15  1  0  0  0  0
 14 24  4  0  0  0  0
 15 16  1  0  0  0  0
 16 17  1  0  0  0  0
 17 18  1  0  0  0  0
 18 19  1  0  0  0  0
 18 23  1  0  0  0  0
 19 20  1  0  0  0  0
 20 21  1  0  0  0  0
 21 22  1  0  0  0  0
 22 23  1  0  0  0  0
 24 25  1  0  0  0  0
 24 27  4  0  0  0  0
 25 26  1  0  0  0  0
 27 28  4  0  0  0  0
 29 30  2  0  0  0  0
 31 32  4  0  0  0  0
 32 33  4  0  0  0  0
 33 34  1  0  0  0  0
M  END
>  <Name_Molregno>
330655

>  <5-HT2A>
6.4

>  <5-HT2C>
8.7

$$$$
330661
  Marvin  02231216192D 0   1.00000     0.00000     0

 30 33  0  0  0  0  0  0  0  0999 V2000
   -2.1065    0.6081    0.0000 Cl  0  0  0  0  0  0  0  0  0
   -1.3921    1.0206    0.0000 C   0  0  0  0  0  0  0  0  0
   -1.3921    1.8456    0.0000 C   0  0  0  0  0  0  0  0  0
   -0.6776    2.2581    0.0000 C   0  0  0  0  0  0  0  0  0
    0.0369    1.8456    0.0000 C   0  0  0  0  0  0  0  0  0
    0.0369    1.0206    0.0000 C   0  0  0  0  0  0  0  0  0
   -0.6776    0.6081    0.0000 C   0  0  0  0  0  0  0  0  0
   -0.6776   -0.2169    0.0000 N   0  0  0  0  0  0  0  0  0
   -0.0101   -0.7018    0.0000 C   0  0  0  0  0  0  0  0  0
   -0.2651   -1.4864    0.0000 C   0  0  0  0  0  0  0  0  0
   -1.0901   -1.4864    0.0000 N   0  0  0  0  0  0  0  0  0
   -1.5750   -2.1539    0.0000 C   0  0  0  0  0  0  0  0  0
   -1.2395   -2.9075    0.0000 C   0  0  0  0  0  0  0  0  0
   -1.7244   -3.5750    0.0000 C   0  0  0  0  0  0  0  0  0
   -1.3888   -4.3286    0.0000 O   0  0  0  0  0  0  0  0  0
   -1.8737   -4.9961    0.0000 C   0  0  0  0  0  0  0  0  0
   -1.5382   -5.7498    0.0000 C   0  0  0  0  0  0  0  0  0
   -2.0231   -6.4172    0.0000 N   0  0  0  0  0  0  0  0  0
   -1.6875   -7.1709    0.0000 C   0  0  0  0  0  0  0  0  0
   -2.1725   -7.8383    0.0000 C   0  0  0  0  0  0  0  0  0
   -2.9930   -7.7521    0.0000 C   0  0  0  0  0  0  0  0  0
   -3.3285   -6.9984    0.0000 C   0  0  0  0  0  0  0  0  0
   -2.8436   -6.3310    0.0000 C   0  0  0  0  0  0  0  0  0
   -2.5449   -3.4887    0.0000 C   0  0  0  0  0  0  0  0  0
   -3.0298   -4.1562    0.0000 O   0  0  0  0  0  0  0  0  0
   -3.8503   -4.0699    0.0000 C   0  0  0  0  0  0  0  0  0
   -2.8804   -2.7351    0.0000 C   0  0  0  0  0  0  0  0  0
   -2.3955   -2.0676    0.0000 C   0  0  0  0  0  0  0  0  0
   -1.3450   -0.7018    0.0000 C   0  0  0  0  0  0  0  0  0
   -2.1296   -0.4469    0.0000 O   0  0  0  0  0  0  0  0  0
  1  2  1  0  0  0  0
  2  3  4  0  0  0  0
  2  7  4  0  0  0  0
  3  4  4  0  0  0  0
  4  5  4  0  0  0  0
  5  6  4  0  0  0  0
  6  7  4  0  0  0  0
  7  8  1  0  0  0  0
  8  9  1  0  0  0  0
  8 29  1  0  0  0  0
  9 10  1  0  0  0  0
 10 11  1  0  0  0  0
 11 12  1  0  0  0  0
 11 29  1  0  0  0  0
 12 13  4  0  0  0  0
 12 28  4  0  0  0  0
 13 14  4  0  0  0  0
 14 15  1  0  0  0  0
 14 24  4  0  0  0  0
 15 16  1  0  0  0  0
 16 17  1  0  0  0  0
 17 18  1  0  0  0  0
 18 19  1  0  0  0  0
 18 23  1  0  0  0  0
 19 20  1  0  0  0  0
 20 21  1  0  0  0  0
 21 22  1  0  0  0  0
 22 23  1  0  0  0  0
 24 25  1  0  0  0  0
 24 27  4  0  0  0  0
 25 26  1  0  0  0  0
 27 28  4  0  0  0  0
 29 30  2  0  0  0  0
M  END
>  <Name_Molregno>
330661

>  <5-HT2A>
5.4

>  <5-HT2C>
7.5

$$$$
330667
  Marvin  02231216192D 0   1.00000     0.00000     0

 31 34  0  0  0  0  0  0  0  0999 V2000
   -0.3480    1.6688    0.0000 Cl  0  0  0  0  0  0  0  0  0
   -1.0624    2.0813    0.0000 C   0  0  0  0  0  0  0  0  0
   -1.7769    1.6688    0.0000 C   0  0  0  0  0  0  0  0  0
   -1.7769    0.8438    0.0000 N   0  0  0  0  0  0  0  0  0
   -1.1095    0.3588    0.0000 C   0  0  0  0  0  0  0  0  0
   -1.3644   -0.4258    0.0000 C   0  0  0  0  0  0  0  0  0
   -2.1894   -0.4258    0.0000 N   0  0  0  0  0  0  0  0  0
   -2.6743   -1.0932    0.0000 C   0  0  0  0  0  0  0  0  0
   -2.3388   -1.8469    0.0000 C   0  0  0  0  0  0  0  0  0
   -2.8237   -2.5143    0.0000 C   0  0  0  0  0  0  0  0  0
   -2.4881   -3.2680    0.0000 O   0  0  0  0  0  0  0  0  0
   -2.9731   -3.9354    0.0000 C   0  0  0  0  0  0  0  0  0
   -2.6375   -4.6891    0.0000 C   0  0  0  0  0  0  0  0  0
   -3.1224   -5.3566    0.0000 N   0  0  0  0  0  0  0  0  0
   -2.7869   -6.1102    0.0000 C   0  0  0  0  0  0  0  0  0
   -3.2718   -6.7777    0.0000 C   0  0  0  0  0  0  0  0  0
   -4.0923   -6.6914    0.0000 C   0  0  0  0  0  0  0  0  0
   -4.4278   -5.9378    0.0000 C   0  0  0  0  0  0  0  0  0
   -3.9429   -5.2703    0.0000 C   0  0  0  0  0  0  0  0  0
   -3.6442   -2.4281    0.0000 C   0  0  0  0  0  0  0  0  0
   -4.1291   -3.0955    0.0000 O   0  0  0  0  0  0  0  0  0
   -4.9496   -3.0093    0.0000 C   0  0  0  0  0  0  0  0  0
   -3.9797   -1.6744    0.0000 C   0  0  0  0  0  0  0  0  0
   -3.4948   -1.0070    0.0000 C   0  0  0  0  0  0  0  0  0
   -2.4444    0.3588    0.0000 C   0  0  0  0  0  0  0  0  0
   -3.2290    0.6138    0.0000 O   0  0  0  0  0  0  0  0  0
   -2.4914    2.0813    0.0000 C   0  0  0  0  0  0  0  0  0
   -2.4914    2.9063    0.0000 C   0  0  0  0  0  0  0  0  0
   -1.7769    3.3188    0.0000 C   0  0  0  0  0  0  0  0  0
   -1.0624    2.9063    0.0000 C   0  0  0  0  0  0  0  0  0
   -0.3480    3.3188    0.0000 Cl  0  0  0  0  0  0  0  0  0
  1  2  1  0  0  0  0
  2  3  4  0  0  0  0
  2 30  4  0  0  0  0
  3  4  1  0  0  0  0
  3 27  4  0  0  0  0
  4  5  1  0  0  0  0
  4 25  1  0  0  0  0
  5  6  1  0  0  0  0
  6  7  1  0  0  0  0
  7  8  1  0  0  0  0
  7 25  1  0  0  0  0
  8  9  4  0  0  0  0
  8 24  4  0  0  0  0
  9 10  4  0  0  0  0
 10 11  1  0  0  0  0
 10 20  4  0  0  0  0
 11 12  1  0  0  0  0
 12 13  1  0  0  0  0
 13 14  1  0  0  0  0
 14 15  1  0  0  0  0
 14 19  1  0  0  0  0
 15 16  1  0  0  0  0
 16 17  1  0  0  0  0
 17 18  1  0  0  0  0
 18 19  1  0  0  0  0
 20 21  1  0  0  0  0
 20 23  4  0  0  0  0
 21 22  1  0  0  0  0
 23 24  4  0  0  0  0
 25 26  2  0  0  0  0
 27 28  4  0  0  0  0
 28 29  4  0  0  0  0
 29 30  4  0  0  0  0
 30 31  1  0  0  0  0
M  END
>  <Name_Molregno>
330667

>  <5-HT2A>
5.8

>  <5-HT2C>
8

$$$$
330668
  Marvin  02231216192D 0   1.00000     0.00000     0

 31 34  0  0  0  0  0  0  0  0999 V2000
    5.2194    1.3362    0.0000 Cl  0  0  0  0  0  0  0  0  0
    4.5049    0.9237    0.0000 C   0  0  0  0  0  0  0  0  0
    4.5049    0.0987    0.0000 C   0  0  0  0  0  0  0  0  0
    3.7904   -0.3138    0.0000 C   0  0  0  0  0  0  0  0  0
    3.7904   -1.1388    0.0000 N   0  0  0  0  0  0  0  0  0
    4.4578   -1.6237    0.0000 C   0  0  0  0  0  0  0  0  0
    4.2029   -2.4084    0.0000 C   0  0  0  0  0  0  0  0  0
    3.3779   -2.4084    0.0000 N   0  0  0  0  0  0  0  0  0
    2.8930   -3.0758    0.0000 C   0  0  0  0  0  0  0  0  0
    3.2285   -3.8295    0.0000 C   0  0  0  0  0  0  0  0  0
    2.7436   -4.4969    0.0000 C   0  0  0  0  0  0  0  0  0
    3.0792   -5.2506    0.0000 O   0  0  0  0  0  0  0  0  0
    2.5943   -5.9180    0.0000 C   0  0  0  0  0  0  0  0  0
    2.9298   -6.6717    0.0000 C   0  0  0  0  0  0  0  0  0
    2.4449   -7.3391    0.0000 N   0  0  0  0  0  0  0  0  0
    2.7804   -8.0928    0.0000 C   0  0  0  0  0  0  0  0  0
    2.2955   -8.7602    0.0000 C   0  0  0  0  0  0  0  0  0
    1.4750   -8.6740    0.0000 C   0  0  0  0  0  0  0  0  0
    1.1395   -7.9203    0.0000 C   0  0  0  0  0  0  0  0  0
    1.6244   -7.2529    0.0000 C   0  0  0  0  0  0  0  0  0
    1.9231   -4.4107    0.0000 C   0  0  0  0  0  0  0  0  0
    1.4382   -5.0781    0.0000 O   0  0  0  0  0  0  0  0  0
    0.6177   -4.9919    0.0000 C   0  0  0  0  0  0  0  0  0
    1.5876   -3.6570    0.0000 C   0  0  0  0  0  0  0  0  0
    2.0725   -2.9896    0.0000 C   0  0  0  0  0  0  0  0  0
    3.1230   -1.6237    0.0000 C   0  0  0  0  0  0  0  0  0
    2.3383   -1.3688    0.0000 O   0  0  0  0  0  0  0  0  0
    3.0759    0.0987    0.0000 C   0  0  0  0  0  0  0  0  0
    3.0759    0.9237    0.0000 C   0  0  0  0  0  0  0  0  0
    3.7904    1.3362    0.0000 C   0  0  0  0  0  0  0  0  0
    3.7904    2.1612    0.0000 Cl  0  0  0  0  0  0  0  0  0
  1  2  1  0  0  0  0
  2  3  4  0  0  0  0
  2 30  4  0  0  0  0
  3  4  4  0  0  0  0
  4  5  1  0  0  0  0
  4 28  4  0  0  0  0
  5  6  1  0  0  0  0
  5 26  1  0  0  0  0
  6  7  1  0  0  0  0
  7  8  1  0  0  0  0
  8  9  1  0  0  0  0
  8 26  1  0  0  0  0
  9 10  4  0  0  0  0
  9 25  4  0  0  0  0
 10 11  4  0  0  0  0
 11 12  1  0  0  0  0
 11 21  4  0  0  0  0
 12 13  1  0  0  0  0
 13 14  1  0  0  0  0
 14 15  1  0  0  0  0
 15 16  1  0  0  0  0
 15 20  1  0  0  0  0
 16 17  1  0  0  0  0
 17 18  1  0  0  0  0
 18 19  1  0  0  0  0
 19 20  1  0  0  0  0
 21 22  1  0  0  0  0
 21 24  4  0  0  0  0
 22 23  1  0  0  0  0
 24 25  4  0  0  0  0
 26 27  2  0  0  0  0
 28 29  4  0  0  0  0
 29 30  4  0  0  0  0
 30 31  1  0  0  0  0
M  END
>  <Name_Molregno>
330668

>  <5-HT2A>
6.2

>  <5-HT2C>
9.1

$$$$
330678
  Marvin  02231216192D 0   1.00000     0.00000     0

 29 32  0  0  0  0  0  0  0  0999 V2000
    2.7146   -0.2080    0.0000 O   0  0  0  0  0  0  0  0  0
    2.7146    0.6170    0.0000 C   0  0  0  0  0  0  0  0  0
    3.4291    1.0295    0.0000 C   0  0  0  0  0  0  0  0  0
    3.4291    1.8545    0.0000 N   0  0  0  0  0  0  0  0  0
    2.7146    2.2670    0.0000 C   0  0  0  0  0  0  0  0  0
    2.7146    3.0920    0.0000 C   0  0  0  0  0  0  0  0  0
    3.4291    3.5045    0.0000 C   0  0  0  0  0  0  0  0  0
    4.1436    3.0920    0.0000 C   0  0  0  0  0  0  0  0  0
    4.1436    2.2670    0.0000 C   0  0  0  0  0  0  0  0  0
    2.0002   -0.6205    0.0000 C   0  0  0  0  0  0  0  0  0
    2.0002   -1.4455    0.0000 C   0  0  0  0  0  0  0  0  0
    1.2857   -1.8580    0.0000 C   0  0  0  0  0  0  0  0  0
    1.2857   -2.6830    0.0000 N   0  0  0  0  0  0  0  0  0
    1.9531   -3.1679    0.0000 C   0  0  0  0  0  0  0  0  0
    1.6982   -3.9526    0.0000 C   0  0  0  0  0  0  0  0  0
    0.8732   -3.9526    0.0000 N   0  0  0  0  0  0  0  0  0
    0.3883   -4.6200    0.0000 C   0  0  0  0  0  0  0  0  0
    0.7238   -5.3737    0.0000 C   0  0  0  0  0  0  0  0  0
    0.2389   -6.0411    0.0000 C   0  0  0  0  0  0  0  0  0
   -0.5816   -5.9549    0.0000 C   0  0  0  0  0  0  0  0  0
   -0.9171   -5.2012    0.0000 C   0  0  0  0  0  0  0  0  0
   -0.4322   -4.5338    0.0000 C   0  0  0  0  0  0  0  0  0
    0.6182   -3.1679    0.0000 C   0  0  0  0  0  0  0  0  0
   -0.1664   -2.9130    0.0000 O   0  0  0  0  0  0  0  0  0
    0.5712   -1.4455    0.0000 C   0  0  0  0  0  0  0  0  0
    0.5712   -0.6205    0.0000 C   0  0  0  0  0  0  0  0  0
    1.2857   -0.2080    0.0000 C   0  0  0  0  0  0  0  0  0
    1.2857    0.6170    0.0000 O   0  0  0  0  0  0  0  0  0
    0.5712    1.0295    0.0000 C   0  0  0  0  0  0  0  0  0
  1  2  1  0  0  0  0
  1 10  1  0  0  0  0
  2  3  1  0  0  0  0
  3  4  1  0  0  0  0
  4  5  1  0  0  0  0
  4  9  1  0  0  0  0
  5  6  1  0  0  0  0
  6  7  1  0  0  0  0
  7  8  1  0  0  0  0
  8  9  1  0  0  0  0
 10 11  4  0  0  0  0
 10 27  4  0  0  0  0
 11 12  4  0  0  0  0
 12 13  1  0  0  0  0
 12 25  4  0  0  0  0
 13 14  1  0  0  0  0
 13 23  1  0  0  0  0
 14 15  1  0  0  0  0
 15 16  1  0  0  0  0
 16 17  1  0  0  0  0
 16 23  1  0  0  0  0
 17 18  4  0  0  0  0
 17 22  4  0  0  0  0
 18 19  4  0  0  0  0
 19 20  4  0  0  0  0
 20 21  4  0  0  0  0
 21 22  4  0  0  0  0
 23 24  2  0  0  0  0
 25 26  4  0  0  0  0
 26 27  4  0  0  0  0
 27 28  1  0  0  0  0
 28 29  1  0  0  0  0
M  END
>  <Name_Molregno>
330678

>  <5-HT2A>
5.6

>  <5-HT2C>
8.9

$$$$
330679
  Marvin  02231216192D 0   1.00000     0.00000     0

 30 33  0  0  0  0  0  0  0  0999 V2000
    5.3737    1.4190    0.0000 F   0  0  0  0  0  0  0  0  0
    4.6592    1.0065    0.0000 C   0  0  0  0  0  0  0  0  0
    4.6592    0.1815    0.0000 C   0  0  0  0  0  0  0  0  0
    3.9447   -0.2310    0.0000 C   0  0  0  0  0  0  0  0  0
    3.9447   -1.0560    0.0000 N   0  0  0  0  0  0  0  0  0
    4.6122   -1.5409    0.0000 C   0  0  0  0  0  0  0  0  0
    4.3572   -2.3256    0.0000 C   0  0  0  0  0  0  0  0  0
    3.5322   -2.3256    0.0000 N   0  0  0  0  0  0  0  0  0
    3.0473   -2.9930    0.0000 C   0  0  0  0  0  0  0  0  0
    3.3829   -3.7467    0.0000 C   0  0  0  0  0  0  0  0  0
    2.8979   -4.4141    0.0000 C   0  0  0  0  0  0  0  0  0
    3.2335   -5.1678    0.0000 O   0  0  0  0  0  0  0  0  0
    2.7486   -5.8352    0.0000 C   0  0  0  0  0  0  0  0  0
    3.0841   -6.5889    0.0000 C   0  0  0  0  0  0  0  0  0
    2.5992   -7.2563    0.0000 N   0  0  0  0  0  0  0  0  0
    2.9348   -8.0100    0.0000 C   0  0  0  0  0  0  0  0  0
    2.4498   -8.6775    0.0000 C   0  0  0  0  0  0  0  0  0
    1.6294   -8.5912    0.0000 C   0  0  0  0  0  0  0  0  0
    1.2938   -7.8375    0.0000 C   0  0  0  0  0  0  0  0  0
    1.7787   -7.1701    0.0000 C   0  0  0  0  0  0  0  0  0
    2.0775   -4.3279    0.0000 C   0  0  0  0  0  0  0  0  0
    1.5925   -4.9953    0.0000 O   0  0  0  0  0  0  0  0  0
    0.7720   -4.9091    0.0000 C   0  0  0  0  0  0  0  0  0
    1.7419   -3.5742    0.0000 C   0  0  0  0  0  0  0  0  0
    2.2268   -2.9068    0.0000 C   0  0  0  0  0  0  0  0  0
    3.2773   -1.5409    0.0000 C   0  0  0  0  0  0  0  0  0
    2.4927   -1.2860    0.0000 O   0  0  0  0  0  0  0  0  0
    3.2302    0.1815    0.0000 C   0  0  0  0  0  0  0  0  0
    3.2302    1.0065    0.0000 C   0  0  0  0  0  0  0  0  0
    3.9447    1.4190    0.0000 C   0  0  0  0  0  0  0  0  0
  1  2  1  0  0  0  0
  2  3  4  0  0  0  0
  2 30  4  0  0  0  0
  3  4  4  0  0  0  0
  4  5  1  0  0  0  0
  4 28  4  0  0  0  0
  5  6  1  0  0  0  0
  5 26  1  0  0  0  0
  6  7  1  0  0  0  0
  7  8  1  0  0  0  0
  8  9  1  0  0  0  0
  8 26  1  0  0  0  0
  9 10  4  0  0  0  0
  9 25  4  0  0  0  0
 10 11  4  0  0  0  0
 11 12  1  0  0  0  0
 11 21  4  0  0  0  0
 12 13  1  0  0  0  0
 13 14  1  0  0  0  0
 14 15  1  0  0  0  0
 15 16  1  0  0  0  0
 15 20  1  0  0  0  0
 16 17  1  0  0  0  0
 17 18  1  0  0  0  0
 18 19  1  0  0  0  0
 19 20  1  0  0  0  0
 21 22  1  0  0  0  0
 21 24  4  0  0  0  0
 22 23  1  0  0  0  0
 24 25  4  0  0  0  0
 26 27  2  0  0  0  0
 28 29  4  0  0  0  0
 29 30  4  0  0  0  0
M  END
>  <Name_Molregno>
330679

>  <5-HT2A>
5.7

>  <5-HT2C>
8.8

$$$$
330685
  Marvin  02231216192D 0   1.00000     0.00000     0

 30 33  0  0  0  0  0  0  0  0999 V2000
    5.3737    1.4190    0.0000 F   0  0  0  0  0  0  0  0  0
    4.6592    1.0065    0.0000 C   0  0  0  0  0  0  0  0  0
    4.6592    0.1815    0.0000 C   0  0  0  0  0  0  0  0  0
    3.9447   -0.2310    0.0000 C   0  0  0  0  0  0  0  0  0
    3.9447   -1.0560    0.0000 N   0  0  0  0  0  0  0  0  0
    4.6122   -1.5409    0.0000 C   0  0  0  0  0  0  0  0  0
    4.3572   -2.3256    0.0000 C   0  0  0  0  0  0  0  0  0
    3.5322   -2.3256    0.0000 N   0  0  0  0  0  0  0  0  0
    3.0473   -2.9930    0.0000 C   0  0  0  0  0  0  0  0  0
    3.3829   -3.7467    0.0000 C   0  0  0  0  0  0  0  0  0
    2.8979   -4.4141    0.0000 C   0  0  0  0  0  0  0  0  0
    3.2335   -5.1678    0.0000 O   0  0  0  0  0  0  0  0  0
    2.7486   -5.8352    0.0000 C   0  0  0  0  0  0  0  0  0
    3.0841   -6.5889    0.0000 C   0  0  0  0  0  0  0  0  0
    2.5992   -7.2563    0.0000 N   0  0  0  0  0  0  0  0  0
    2.9348   -8.0100    0.0000 C   0  0  0  0  0  0  0  0  0
    2.4498   -8.6775    0.0000 C   0  0  0  0  0  0  0  0  0
    1.6294   -8.5912    0.0000 O   0  0  0  0  0  0  0  0  0
    1.2938   -7.8375    0.0000 C   0  0  0  0  0  0  0  0  0
    1.7787   -7.1701    0.0000 C   0  0  0  0  0  0  0  0  0
    2.0775   -4.3279    0.0000 C   0  0  0  0  0  0  0  0  0
    1.5925   -4.9953    0.0000 O   0  0  0  0  0  0  0  0  0
    0.7720   -4.9091    0.0000 C   0  0  0  0  0  0  0  0  0
    1.7419   -3.5742    0.0000 C   0  0  0  0  0  0  0  0  0
    2.2268   -2.9068    0.0000 C   0  0  0  0  0  0  0  0  0
    3.2773   -1.5409    0.0000 C   0  0  0  0  0  0  0  0  0
    2.4927   -1.2860    0.0000 O   0  0  0  0  0  0  0  0  0
    3.2302    0.1815    0.0000 C   0  0  0  0  0  0  0  0  0
    3.2302    1.0065    0.0000 C   0  0  0  0  0  0  0  0  0
    3.9447    1.4190    0.0000 C   0  0  0  0  0  0  0  0  0
  1  2  1  0  0  0  0
  2  3  4  0  0  0  0
  2 30  4  0  0  0  0
  3  4  4  0  0  0  0
  4  5  1  0  0  0  0
  4 28  4  0  0  0  0
  5  6  1  0  0  0  0
  5 26  1  0  0  0  0
  6  7  1  0  0  0  0
  7  8  1  0  0  0  0
  8  9  1  0  0  0  0
  8 26  1  0  0  0  0
  9 10  4  0  0  0  0
  9 25  4  0  0  0  0
 10 11  4  0  0  0  0
 11 12  1  0  0  0  0
 11 21  4  0  0  0  0
 12 13  1  0  0  0  0
 13 14  1  0  0  0  0
 14 15  1  0  0  0  0
 15 16  1  0  0  0  0
 15 20  1  0  0  0  0
 16 17  1  0  0  0  0
 17 18  1  0  0  0  0
 18 19  1  0  0  0  0
 19 20  1  0  0  0  0
 21 22  1  0  0  0  0
 21 24  4  0  0  0  0
 22 23  1  0  0  0  0
 24 25  4  0  0  0  0
 26 27  2  0  0  0  0
 28 29  4  0  0  0  0
 29 30  4  0  0  0  0
M  END
>  <Name_Molregno>
330685

>  <5-HT2A>
5.2

>  <5-HT2C>
7.9

$$$$
330686
  Marvin  02231216192D 0   1.00000     0.00000     0

 27 29  0  0  0  0  0  0  0  0999 V2000
   -8.7824    2.2370    0.0000 F   0  0  0  0  0  0  0  0  0
   -8.2975    1.5695    0.0000 C   0  0  0  0  0  0  0  0  0
   -7.4770    1.6558    0.0000 C   0  0  0  0  0  0  0  0  0
   -6.9921    0.9883    0.0000 C   0  0  0  0  0  0  0  0  0
   -6.1716    1.0746    0.0000 N   0  0  0  0  0  0  0  0  0
   -5.7591    1.7891    0.0000 C   0  0  0  0  0  0  0  0  0
   -4.9522    1.6175    0.0000 C   0  0  0  0  0  0  0  0  0
   -4.8659    0.7970    0.0000 N   0  0  0  0  0  0  0  0  0
   -4.1515    0.3845    0.0000 C   0  0  0  0  0  0  0  0  0
   -3.4370    0.7970    0.0000 C   0  0  0  0  0  0  0  0  0
   -2.7225    0.3845    0.0000 C   0  0  0  0  0  0  0  0  0
   -2.0080    0.7970    0.0000 O   0  0  0  0  0  0  0  0  0
   -1.2936    0.3845    0.0000 C   0  0  0  0  0  0  0  0  0
   -0.5791    0.7970    0.0000 C   0  0  0  0  0  0  0  0  0
    0.1354    0.3845    0.0000 N   0  0  0  0  0  0  0  0  0
    0.8498    0.7970    0.0000 C   0  0  0  0  0  0  0  0  0
    0.1354   -0.4405    0.0000 C   0  0  0  0  0  0  0  0  0
   -2.7225   -0.4405    0.0000 C   0  0  0  0  0  0  0  0  0
   -2.0080   -0.8530    0.0000 O   0  0  0  0  0  0  0  0  0
   -2.0080   -1.6780    0.0000 C   0  0  0  0  0  0  0  0  0
   -3.4370   -0.8530    0.0000 C   0  0  0  0  0  0  0  0  0
   -4.1515   -0.4405    0.0000 C   0  0  0  0  0  0  0  0  0
   -5.6196    0.4615    0.0000 C   0  0  0  0  0  0  0  0  0
   -5.7911   -0.3455    0.0000 O   0  0  0  0  0  0  0  0  0
   -7.3277    0.2347    0.0000 C   0  0  0  0  0  0  0  0  0
   -8.1482    0.1484    0.0000 C   0  0  0  0  0  0  0  0  0
   -8.6331    0.8159    0.0000 C   0  0  0  0  0  0  0  0  0
  1  2  1  0  0  0  0
  2  3  4  0  0  0  0
  2 27  4  0  0  0  0
  3  4  4  0  0  0  0
  4  5  1  0  0  0  0
  4 25  4  0  0  0  0
  5  6  1  0  0  0  0
  5 23  1  0  0  0  0
  6  7  1  0  0  0  0
  7  8  1  0  0  0  0
  8  9  1  0  0  0  0
  8 23  1  0  0  0  0
  9 10  4  0  0  0  0
  9 22  4  0  0  0  0
 10 11  4  0  0  0  0
 11 12  1  0  0  0  0
 11 18  4  0  0  0  0
 12 13  1  0  0  0  0
 13 14  1  0  0  0  0
 14 15  1  0  0  0  0
 15 16  1  0  0  0  0
 15 17  1  0  0  0  0
 18 19  1  0  0  0  0
 18 21  4  0  0  0  0
 19 20  1  0  0  0  0
 21 22  4  0  0  0  0
 23 24  2  0  0  0  0
 25 26  4  0  0  0  0
 26 27  4  0  0  0  0
M  END
>  <Name_Molregno>
330686

>  <5-HT2A>
5.6

>  <5-HT2C>
8.4

$$$$
330691
  Marvin  02231216192D 0   1.00000     0.00000     0

 25 27  0  0  0  0  0  0  0  0999 V2000
   -2.2104    4.0002    0.0000 F   0  0  0  0  0  0  0  0  0
   -2.9248    3.5877    0.0000 C   0  0  0  0  0  0  0  0  0
   -2.9248    2.7627    0.0000 C   0  0  0  0  0  0  0  0  0
   -3.6393    2.3502    0.0000 C   0  0  0  0  0  0  0  0  0
   -3.6393    1.5252    0.0000 N   0  0  0  0  0  0  0  0  0
   -2.9719    1.0402    0.0000 C   0  0  0  0  0  0  0  0  0
   -3.2268    0.2556    0.0000 C   0  0  0  0  0  0  0  0  0
   -4.0518    0.2556    0.0000 N   0  0  0  0  0  0  0  0  0
   -4.5367   -0.4118    0.0000 C   0  0  0  0  0  0  0  0  0
   -4.2012   -1.1655    0.0000 C   0  0  0  0  0  0  0  0  0
   -4.6861   -1.8329    0.0000 C   0  0  0  0  0  0  0  0  0
   -4.3505   -2.5866    0.0000 O   0  0  0  0  0  0  0  0  0
   -3.5300   -2.6728    0.0000 C   0  0  0  0  0  0  0  0  0
   -3.1945   -3.4265    0.0000 C   0  0  0  0  0  0  0  0  0
   -2.3740   -3.5128    0.0000 O   0  0  0  0  0  0  0  0  0
   -5.5066   -1.7467    0.0000 C   0  0  0  0  0  0  0  0  0
   -5.9915   -2.4141    0.0000 O   0  0  0  0  0  0  0  0  0
   -6.8120   -2.3279    0.0000 C   0  0  0  0  0  0  0  0  0
   -5.8421   -0.9930    0.0000 C   0  0  0  0  0  0  0  0  0
   -5.3572   -0.3256    0.0000 C   0  0  0  0  0  0  0  0  0
   -4.3067    1.0402    0.0000 C   0  0  0  0  0  0  0  0  0
   -5.0914    1.2952    0.0000 O   0  0  0  0  0  0  0  0  0
   -4.3538    2.7627    0.0000 C   0  0  0  0  0  0  0  0  0
   -4.3538    3.5877    0.0000 C   0  0  0  0  0  0  0  0  0
   -3.6393    4.0002    0.0000 C   0  0  0  0  0  0  0  0  0
  1  2  1  0  0  0  0
  2  3  4  0  0  0  0
  2 25  4  0  0  0  0
  3  4  4  0  0  0  0
  4  5  1  0  0  0  0
  4 23  4  0  0  0  0
  5  6  1  0  0  0  0
  5 21  1  0  0  0  0
  6  7  1  0  0  0  0
  7  8  1  0  0  0  0
  8  9  1  0  0  0  0
  8 21  1  0  0  0  0
  9 10  4  0  0  0  0
  9 20  4  0  0  0  0
 10 11  4  0  0  0  0
 11 12  1  0  0  0  0
 11 16  4  0  0  0  0
 12 13  1  0  0  0  0
 13 14  1  0  0  0  0
 14 15  1  0  0  0  0
 16 17  1  0  0  0  0
 16 19  4  0  0  0  0
 17 18  1  0  0  0  0
 19 20  4  0  0  0  0
 21 22  2  0  0  0  0
 23 24  4  0  0  0  0
 24 25  4  0  0  0  0
M  END
>  <Name_Molregno>
330691

>  <5-HT2A>
5

>  <5-HT2C>
5.9

$$$$
330692
  Marvin  02231216192D 0   1.00000     0.00000     0

 31 34  0  0  0  0  0  0  0  0999 V2000
    5.2194    1.3362    0.0000 Cl  0  0  0  0  0  0  0  0  0
    4.5049    0.9237    0.0000 C   0  0  0  0  0  0  0  0  0
    4.5049    0.0987    0.0000 C   0  0  0  0  0  0  0  0  0
    3.7904   -0.3138    0.0000 C   0  0  0  0  0  0  0  0  0
    3.7904   -1.1388    0.0000 N   0  0  0  0  0  0  0  0  0
    4.4578   -1.6237    0.0000 C   0  0  0  0  0  0  0  0  0
    4.2029   -2.4084    0.0000 C   0  0  0  0  0  0  0  0  0
    3.3779   -2.4084    0.0000 N   0  0  0  0  0  0  0  0  0
    2.8930   -3.0758    0.0000 C   0  0  0  0  0  0  0  0  0
    3.2285   -3.8295    0.0000 C   0  0  0  0  0  0  0  0  0
    2.7436   -4.4969    0.0000 C   0  0  0  0  0  0  0  0  0
    3.0792   -5.2506    0.0000 O   0  0  0  0  0  0  0  0  0
    2.5943   -5.9180    0.0000 C   0  0  0  0  0  0  0  0  0
    2.9298   -6.6717    0.0000 C   0  0  0  0  0  0  0  0  0
    2.4449   -7.3391    0.0000 N   0  0  0  0  0  0  0  0  0
    2.7804   -8.0928    0.0000 C   0  0  0  0  0  0  0  0  0
    2.2955   -8.7602    0.0000 C   0  0  0  0  0  0  0  0  0
    1.4750   -8.6740    0.0000 O   0  0  0  0  0  0  0  0  0
    1.1395   -7.9203    0.0000 C   0  0  0  0  0  0  0  0  0
    1.6244   -7.2529    0.0000 C   0  0  0  0  0  0  0  0  0
    1.9231   -4.4107    0.0000 C   0  0  0  0  0  0  0  0  0
    1.4382   -5.0781    0.0000 O   0  0  0  0  0  0  0  0  0
    0.6177   -4.9919    0.0000 C   0  0  0  0  0  0  0  0  0
    1.5876   -3.6570    0.0000 C   0  0  0  0  0  0  0  0  0
    2.0725   -2.9896    0.0000 C   0  0  0  0  0  0  0  0  0
    3.1230   -1.6237    0.0000 C   0  0  0  0  0  0  0  0  0
    2.3383   -1.3688    0.0000 O   0  0  0  0  0  0  0  0  0
    3.0759    0.0987    0.0000 C   0  0  0  0  0  0  0  0  0
    3.0759    0.9237    0.0000 C   0  0  0  0  0  0  0  0  0
    3.7904    1.3362    0.0000 C   0  0  0  0  0  0  0  0  0
    3.7904    2.1612    0.0000 Cl  0  0  0  0  0  0  0  0  0
  1  2  1  0  0  0  0
  2  3  4  0  0  0  0
  2 30  4  0  0  0  0
  3  4  4  0  0  0  0
  4  5  1  0  0  0  0
  4 28  4  0  0  0  0
  5  6  1  0  0  0  0
  5 26  1  0  0  0  0
  6  7  1  0  0  0  0
  7  8  1  0  0  0  0
  8  9  1  0  0  0  0
  8 26  1  0  0  0  0
  9 10  4  0  0  0  0
  9 25  4  0  0  0  0
 10 11  4  0  0  0  0
 11 12  1  0  0  0  0
 11 21  4  0  0  0  0
 12 13  1  0  0  0  0
 13 14  1  0  0  0  0
 14 15  1  0  0  0  0
 15 16  1  0  0  0  0
 15 20  1  0  0  0  0
 16 17  1  0  0  0  0
 17 18  1  0  0  0  0
 18 19  1  0  0  0  0
 19 20  1  0  0  0  0
 21 22  1  0  0  0  0
 21 24  4  0  0  0  0
 22 23  1  0  0  0  0
 24 25  4  0  0  0  0
 26 27  2  0  0  0  0
 28 29  4  0  0  0  0
 29 30  4  0  0  0  0
 30 31  1  0  0  0  0
M  END
>  <Name_Molregno>
330692

>  <5-HT2A>
5.3

>  <5-HT2C>
8.5

$$$$
330698
  Marvin  02231216192D 0   1.00000     0.00000     0

 28 30  0  0  0  0  0  0  0  0999 V2000
   -8.4447    2.1546    0.0000 Cl  0  0  0  0  0  0  0  0  0
   -7.9597    1.4872    0.0000 C   0  0  0  0  0  0  0  0  0
   -7.1393    1.5734    0.0000 C   0  0  0  0  0  0  0  0  0
   -6.6543    0.9060    0.0000 C   0  0  0  0  0  0  0  0  0
   -5.8339    0.9922    0.0000 N   0  0  0  0  0  0  0  0  0
   -5.4214    1.7067    0.0000 C   0  0  0  0  0  0  0  0  0
   -4.6144    1.5352    0.0000 C   0  0  0  0  0  0  0  0  0
   -4.5281    0.7147    0.0000 N   0  0  0  0  0  0  0  0  0
   -3.8137    0.3022    0.0000 C   0  0  0  0  0  0  0  0  0
   -3.0992    0.7147    0.0000 C   0  0  0  0  0  0  0  0  0
   -2.3847    0.3022    0.0000 C   0  0  0  0  0  0  0  0  0
   -1.6703    0.7147    0.0000 O   0  0  0  0  0  0  0  0  0
   -0.9558    0.3022    0.0000 C   0  0  0  0  0  0  0  0  0
   -0.2413    0.7147    0.0000 C   0  0  0  0  0  0  0  0  0
    0.4732    0.3022    0.0000 N   0  0  0  0  0  0  0  0  0
    1.1876    0.7147    0.0000 C   0  0  0  0  0  0  0  0  0
    0.4732   -0.5228    0.0000 C   0  0  0  0  0  0  0  0  0
   -2.3847   -0.5228    0.0000 C   0  0  0  0  0  0  0  0  0
   -1.6703   -0.9353    0.0000 O   0  0  0  0  0  0  0  0  0
   -1.6703   -1.7603    0.0000 C   0  0  0  0  0  0  0  0  0
   -3.0992   -0.9353    0.0000 C   0  0  0  0  0  0  0  0  0
   -3.8137   -0.5228    0.0000 C   0  0  0  0  0  0  0  0  0
   -5.2818    0.3791    0.0000 C   0  0  0  0  0  0  0  0  0
   -5.4533   -0.4278    0.0000 O   0  0  0  0  0  0  0  0  0
   -6.9899    0.1523    0.0000 C   0  0  0  0  0  0  0  0  0
   -7.8104    0.0661    0.0000 C   0  0  0  0  0  0  0  0  0
   -8.2953    0.7335    0.0000 C   0  0  0  0  0  0  0  0  0
   -9.1158    0.6473    0.0000 Cl  0  0  0  0  0  0  0  0  0
  1  2  1  0  0  0  0
  2  3  4  0  0  0  0
  2 27  4  0  0  0  0
  3  4  4  0  0  0  0
  4  5  1  0  0  0  0
  4 25  4  0  0  0  0
  5  6  1  0  0  0  0
  5 23  1  0  0  0  0
  6  7  1  0  0  0  0
  7  8  1  0  0  0  0
  8  9  1  0  0  0  0
  8 23  1  0  0  0  0
  9 10  4  0  0  0  0
  9 22  4  0  0  0  0
 10 11  4  0  0  0  0
 11 12  1  0  0  0  0
 11 18  4  0  0  0  0
 12 13  1  0  0  0  0
 13 14  1  0  0  0  0
 14 15  1  0  0  0  0
 15 16  1  0  0  0  0
 15 17  1  0  0  0  0
 18 19  1  0  0  0  0
 18 21  4  0  0  0  0
 19 20  1  0  0  0  0
 21 22  4  0  0  0  0
 23 24  2  0  0  0  0
 25 26  4  0  0  0  0
 26 27  4  0  0  0  0
 27 28  1  0  0  0  0
M  END
>  <Name_Molregno>
330698

>  <5-HT2A>
6.3

>  <5-HT2C>
8.9

$$$$
330699
  Marvin  02231216192D 0   1.00000     0.00000     0

 34 37  0  0  0  0  0  0  0  0999 V2000
    6.9921    2.6577    0.0000 F   0  0  0  0  0  0  0  0  0
    6.2776    2.2452    0.0000 C   0  0  0  0  0  0  0  0  0
    5.8651    2.9597    0.0000 F   0  0  0  0  0  0  0  0  0
    6.6901    1.5308    0.0000 F   0  0  0  0  0  0  0  0  0
    5.5631    1.8327    0.0000 C   0  0  0  0  0  0  0  0  0
    5.5631    1.0077    0.0000 C   0  0  0  0  0  0  0  0  0
    4.8486    0.5952    0.0000 C   0  0  0  0  0  0  0  0  0
    4.8486   -0.2298    0.0000 N   0  0  0  0  0  0  0  0  0
    5.5161   -0.7147    0.0000 C   0  0  0  0  0  0  0  0  0
    5.2611   -1.4993    0.0000 C   0  0  0  0  0  0  0  0  0
    4.4361   -1.4993    0.0000 N   0  0  0  0  0  0  0  0  0
    3.9512   -2.1667    0.0000 C   0  0  0  0  0  0  0  0  0
    4.2868   -2.9204    0.0000 C   0  0  0  0  0  0  0  0  0
    3.8019   -3.5879    0.0000 C   0  0  0  0  0  0  0  0  0
    4.1374   -4.3415    0.0000 O   0  0  0  0  0  0  0  0  0
    3.6525   -5.0090    0.0000 C   0  0  0  0  0  0  0  0  0
    3.9881   -5.7626    0.0000 C   0  0  0  0  0  0  0  0  0
    3.5031   -6.4301    0.0000 N   0  0  0  0  0  0  0  0  0
    3.8387   -7.1838    0.0000 C   0  0  0  0  0  0  0  0  0
    3.3538   -7.8512    0.0000 C   0  0  0  0  0  0  0  0  0
    2.5333   -7.7650    0.0000 O   0  0  0  0  0  0  0  0  0
    2.1977   -7.0113    0.0000 C   0  0  0  0  0  0  0  0  0
    2.6827   -6.3438    0.0000 C   0  0  0  0  0  0  0  0  0
    2.9814   -3.5016    0.0000 C   0  0  0  0  0  0  0  0  0
    2.4965   -4.1691    0.0000 O   0  0  0  0  0  0  0  0  0
    1.6760   -4.0828    0.0000 C   0  0  0  0  0  0  0  0  0
    2.6458   -2.7479    0.0000 C   0  0  0  0  0  0  0  0  0
    3.1307   -2.0805    0.0000 C   0  0  0  0  0  0  0  0  0
    4.1812   -0.7147    0.0000 C   0  0  0  0  0  0  0  0  0
    3.3966   -0.4597    0.0000 O   0  0  0  0  0  0  0  0  0
    4.1342    1.0077    0.0000 C   0  0  0  0  0  0  0  0  0
    4.1342    1.8327    0.0000 C   0  0  0  0  0  0  0  0  0
    4.8486    2.2452    0.0000 C   0  0  0  0  0  0  0  0  0
    4.8486    3.0702    0.0000 C   0  0  0  0  0  0  0  0  0
  1  2  1  0  0  0  0
  2  3  1  0  0  0  0
  2  4  1  0  0  0  0
  2  5  1  0  0  0  0
  5  6  4  0  0  0  0
  5 33  4  0  0  0  0
  6  7  4  0  0  0  0
  7  8  1  0  0  0  0
  7 31  4  0  0  0  0
  8  9  1  0  0  0  0
  8 29  1  0  0  0  0
  9 10  1  0  0  0  0
 10 11  1  0  0  0  0
 11 12  1  0  0  0  0
 11 29  1  0  0  0  0
 12 13  4  0  0  0  0
 12 28  4  0  0  0  0
 13 14  4  0  0  0  0
 14 15  1  0  0  0  0
 14 24  4  0  0  0  0
 15 16  1  0  0  0  0
 16 17  1  0  0  0  0
 17 18  1  0  0  0  0
 18 19  1  0  0  0  0
 18 23  1  0  0  0  0
 19 20  1  0  0  0  0
 20 21  1  0  0  0  0
 21 22  1  0  0  0  0
 22 23  1  0  0  0  0
 24 25  1  0  0  0  0
 24 27  4  0  0  0  0
 25 26  1  0  0  0  0
 27 28  4  0  0  0  0
 29 30  2  0  0  0  0
 31 32  4  0  0  0  0
 32 33  4  0  0  0  0
 33 34  1  0  0  0  0
M  END
>  <Name_Molregno>
330699

>  <5-HT2A>
5.5

>  <5-HT2C>
8.1

$$$$
330706
  Marvin  02231216192D 0   1.00000     0.00000     0

 29 32  0  0  0  0  0  0  0  0999 V2000
    8.0650    4.1483    0.0000 Cl  0  0  0  0  0  0  0  0  0
    7.3505    3.7358    0.0000 C   0  0  0  0  0  0  0  0  0
    7.3505    2.9108    0.0000 C   0  0  0  0  0  0  0  0  0
    6.6360    2.4983    0.0000 C   0  0  0  0  0  0  0  0  0
    6.6360    1.6733    0.0000 N   0  0  0  0  0  0  0  0  0
    7.3035    1.1883    0.0000 C   0  0  0  0  0  0  0  0  0
    7.0485    0.4037    0.0000 C   0  0  0  0  0  0  0  0  0
    6.2235    0.4037    0.0000 N   0  0  0  0  0  0  0  0  0
    5.7386   -0.2637    0.0000 C   0  0  0  0  0  0  0  0  0
    6.0742   -1.0174    0.0000 C   0  0  0  0  0  0  0  0  0
    5.5892   -1.6848    0.0000 C   0  0  0  0  0  0  0  0  0
    4.7688   -1.5986    0.0000 C   0  0  0  0  0  0  0  0  0
    4.2838   -2.2660    0.0000 O   0  0  0  0  0  0  0  0  0
    3.4633   -2.1798    0.0000 C   0  0  0  0  0  0  0  0  0
    2.9784   -2.8472    0.0000 C   0  0  0  0  0  0  0  0  0
    2.1579   -2.7610    0.0000 N   0  0  0  0  0  0  0  0  0
    1.6730   -3.4284    0.0000 C   0  0  0  0  0  0  0  0  0
    0.8525   -3.3422    0.0000 C   0  0  0  0  0  0  0  0  0
    0.5170   -2.5885    0.0000 C   0  0  0  0  0  0  0  0  0
    1.0019   -1.9211    0.0000 C   0  0  0  0  0  0  0  0  0
    1.8224   -2.0073    0.0000 C   0  0  0  0  0  0  0  0  0
    4.4332   -0.8449    0.0000 N   0  0  0  0  0  0  0  0  0
    4.9181   -0.1775    0.0000 C   0  0  0  0  0  0  0  0  0
    5.9686    1.1883    0.0000 C   0  0  0  0  0  0  0  0  0
    5.1840    1.4433    0.0000 O   0  0  0  0  0  0  0  0  0
    5.9215    2.9108    0.0000 C   0  0  0  0  0  0  0  0  0
    5.9215    3.7358    0.0000 C   0  0  0  0  0  0  0  0  0
    6.6360    4.1483    0.0000 C   0  0  0  0  0  0  0  0  0
    6.6360    4.9733    0.0000 Cl  0  0  0  0  0  0  0  0  0
  1  2  1  0  0  0  0
  2  3  4  0  0  0  0
  2 28  4  0  0  0  0
  3  4  4  0  0  0  0
  4  5  1  0  0  0  0
  4 26  4  0  0  0  0
  5  6  1  0  0  0  0
  5 24  1  0  0  0  0
  6  7  1  0  0  0  0
  7  8  1  0  0  0  0
  8  9  1  0  0  0  0
  8 24  1  0  0  0  0
  9 10  4  0  0  0  0
  9 23  4  0  0  0  0
 10 11  4  0  0  0  0
 11 12  4  0  0  0  0
 12 13  1  0  0  0  0
 12 22  4  0  0  0  0
 13 14  1  0  0  0  0
 14 15  1  0  0  0  0
 15 16  1  0  0  0  0
 16 17  1  0  0  0  0
 16 21  1  0  0  0  0
 17 18  1  0  0  0  0
 18 19  1  0  0  0  0
 19 20  1  0  0  0  0
 20 21  1  0  0  0  0
 22 23  4  0  0  0  0
 24 25  2  0  0  0  0
 26 27  4  0  0  0  0
 27 28  4  0  0  0  0
 28 29  1  0  0  0  0
M  END
>  <Name_Molregno>
330706

>  <5-HT2A>
6

>  <5-HT2C>
7.6

$$$$
330712
  Marvin  02231216192D 0   1.00000     0.00000     0

 28 31  0  0  0  0  0  0  0  0999 V2000
    7.5880    3.9334    0.0000 Cl  0  0  0  0  0  0  0  0  0
    6.8735    3.5209    0.0000 C   0  0  0  0  0  0  0  0  0
    6.8735    2.6959    0.0000 C   0  0  0  0  0  0  0  0  0
    6.1590    2.2834    0.0000 C   0  0  0  0  0  0  0  0  0
    6.1590    1.4584    0.0000 N   0  0  0  0  0  0  0  0  0
    6.8265    0.9735    0.0000 C   0  0  0  0  0  0  0  0  0
    6.5715    0.1889    0.0000 C   0  0  0  0  0  0  0  0  0
    5.7465    0.1889    0.0000 N   0  0  0  0  0  0  0  0  0
    5.2616   -0.4785    0.0000 C   0  0  0  0  0  0  0  0  0
    5.5972   -1.2322    0.0000 C   0  0  0  0  0  0  0  0  0
    5.1122   -1.8997    0.0000 C   0  0  0  0  0  0  0  0  0
    4.2918   -1.8134    0.0000 C   0  0  0  0  0  0  0  0  0
    3.8068   -2.4809    0.0000 O   0  0  0  0  0  0  0  0  0
    2.9864   -2.3946    0.0000 C   0  0  0  0  0  0  0  0  0
    2.5014   -3.0621    0.0000 C   0  0  0  0  0  0  0  0  0
    2.8370   -3.8157    0.0000 N   0  0  0  0  0  0  0  0  0
    2.3521   -4.4832    0.0000 C   0  0  0  0  0  0  0  0  0
    1.5316   -4.3969    0.0000 C   0  0  0  0  0  0  0  0  0
    1.1960   -3.6433    0.0000 C   0  0  0  0  0  0  0  0  0
    1.6809   -2.9758    0.0000 C   0  0  0  0  0  0  0  0  0
    3.9562   -1.0598    0.0000 N   0  0  0  0  0  0  0  0  0
    4.4411   -0.3923    0.0000 C   0  0  0  0  0  0  0  0  0
    5.4916    0.9735    0.0000 C   0  0  0  0  0  0  0  0  0
    4.7070    1.2285    0.0000 O   0  0  0  0  0  0  0  0  0
    5.4446    2.6959    0.0000 C   0  0  0  0  0  0  0  0  0
    5.4446    3.5209    0.0000 C   0  0  0  0  0  0  0  0  0
    6.1590    3.9334    0.0000 C   0  0  0  0  0  0  0  0  0
    6.1590    4.7584    0.0000 Cl  0  0  0  0  0  0  0  0  0
  1  2  1  0  0  0  0
  2  3  4  0  0  0  0
  2 27  4  0  0  0  0
  3  4  4  0  0  0  0
  4  5  1  0  0  0  0
  4 25  4  0  0  0  0
  5  6  1  0  0  0  0
  5 23  1  0  0  0  0
  6  7  1  0  0  0  0
  7  8  1  0  0  0  0
  8  9  1  0  0  0  0
  8 23  1  0  0  0  0
  9 10  4  0  0  0  0
  9 22  4  0  0  0  0
 10 11  4  0  0  0  0
 11 12  4  0  0  0  0
 12 13  1  0  0  0  0
 12 21  4  0  0  0  0
 13 14  1  0  0  0  0
 14 15  1  0  0  0  0
 15 16  4  0  0  0  0
 15 20  4  0  0  0  0
 16 17  4  0  0  0  0
 17 18  4  0  0  0  0
 18 19  4  0  0  0  0
 19 20  4  0  0  0  0
 21 22  4  0  0  0  0
 23 24  2  0  0  0  0
 25 26  4  0  0  0  0
 26 27  4  0  0  0  0
 27 28  1  0  0  0  0
M  END
>  <Name_Molregno>
330712

>  <5-HT2A>
5

>  <5-HT2C>
6.4

$$$$
330713
  Marvin  02231216192D 0   1.00000     0.00000     0

 30 33  0  0  0  0  0  0  0  0999 V2000
    5.3737    1.4190    0.0000 F   0  0  0  0  0  0  0  0  0
    4.6592    1.0065    0.0000 C   0  0  0  0  0  0  0  0  0
    4.6592    0.1815    0.0000 C   0  0  0  0  0  0  0  0  0
    3.9447   -0.2310    0.0000 C   0  0  0  0  0  0  0  0  0
    3.9447   -1.0560    0.0000 N   0  0  0  0  0  0  0  0  0
    4.6122   -1.5409    0.0000 C   0  0  0  0  0  0  0  0  0
    4.3572   -2.3256    0.0000 C   0  0  0  0  0  0  0  0  0
    3.5322   -2.3256    0.0000 N   0  0  0  0  0  0  0  0  0
    3.0473   -2.9930    0.0000 C   0  0  0  0  0  0  0  0  0
    3.3829   -3.7467    0.0000 C   0  0  0  0  0  0  0  0  0
    2.8979   -4.4141    0.0000 C   0  0  0  0  0  0  0  0  0
    3.2335   -5.1678    0.0000 O   0  0  0  0  0  0  0  0  0
    2.7486   -5.8352    0.0000 C   0  0  0  0  0  0  0  0  0
    3.0841   -6.5889    0.0000 C   0  0  0  0  0  0  0  0  0
    2.5992   -7.2563    0.0000 N   0  0  0  0  0  0  0  0  0
    2.9348   -8.0100    0.0000 C   0  0  0  0  0  0  0  0  0
    2.4498   -8.6775    0.0000 C   0  0  0  0  0  0  0  0  0
    1.6294   -8.5912    0.0000 C   0  0  0  0  0  0  0  0  0
    1.2938   -7.8375    0.0000 C   0  0  0  0  0  0  0  0  0
    1.7787   -7.1701    0.0000 C   0  0  0  0  0  0  0  0  0
    2.0775   -4.3279    0.0000 C   0  0  0  0  0  0  0  0  0
    1.5925   -4.9953    0.0000 O   0  0  0  0  0  0  0  0  0
    0.7720   -4.9091    0.0000 C   0  0  0  0  0  0  0  0  0
    1.7419   -3.5742    0.0000 C   0  0  0  0  0  0  0  0  0
    2.2268   -2.9068    0.0000 C   0  0  0  0  0  0  0  0  0
    3.2773   -1.5409    0.0000 C   0  0  0  0  0  0  0  0  0
    2.4927   -1.2860    0.0000 O   0  0  0  0  0  0  0  0  0
    3.2302    0.1815    0.0000 C   0  0  0  0  0  0  0  0  0
    3.2302    1.0065    0.0000 C   0  0  0  0  0  0  0  0  0
    3.9447    1.4190    0.0000 C   0  0  0  0  0  0  0  0  0
  1  2  1  0  0  0  0
  2  3  4  0  0  0  0
  2 30  4  0  0  0  0
  3  4  4  0  0  0  0
  4  5  1  0  0  0  0
  4 28  4  0  0  0  0
  5  6  1  0  0  0  0
  5 26  1  0  0  0  0
  6  7  2  0  0  0  0
  7  8  1  0  0  0  0
  8  9  1  0  0  0  0
  8 26  1  0  0  0  0
  9 10  4  0  0  0  0
  9 25  4  0  0  0  0
 10 11  4  0  0  0  0
 11 12  1  0  0  0  0
 11 21  4  0  0  0  0
 12 13  1  0  0  0  0
 13 14  1  0  0  0  0
 14 15  1  0  0  0  0
 15 16  1  0  0  0  0
 15 20  1  0  0  0  0
 16 17  1  0  0  0  0
 17 18  1  0  0  0  0
 18 19  1  0  0  0  0
 19 20  1  0  0  0  0
 21 22  1  0  0  0  0
 21 24  4  0  0  0  0
 22 23  1  0  0  0  0
 24 25  4  0  0  0  0
 26 27  2  0  0  0  0
 28 29  4  0  0  0  0
 29 30  4  0  0  0  0
M  END
>  <Name_Molregno>
330713

>  <5-HT2A>
6

>  <5-HT2C>
8.2

$$$$
330719
  Marvin  02231216192D 0   1.00000     0.00000     0

 31 34  0  0  0  0  0  0  0  0999 V2000
    6.6338    5.6374    0.0000 F   0  0  0  0  0  0  0  0  0
    5.9193    5.2249    0.0000 C   0  0  0  0  0  0  0  0  0
    5.9193    4.3999    0.0000 C   0  0  0  0  0  0  0  0  0
    5.2048    3.9874    0.0000 C   0  0  0  0  0  0  0  0  0
    5.2048    3.1624    0.0000 N   0  0  0  0  0  0  0  0  0
    5.8723    2.6775    0.0000 C   0  0  0  0  0  0  0  0  0
    5.6173    1.8929    0.0000 C   0  0  0  0  0  0  0  0  0
    4.7923    1.8929    0.0000 N   0  0  0  0  0  0  0  0  0
    4.3074    1.2254    0.0000 C   0  0  0  0  0  0  0  0  0
    4.6430    0.4718    0.0000 C   0  0  0  0  0  0  0  0  0
    4.1580   -0.1957    0.0000 C   0  0  0  0  0  0  0  0  0
    4.4936   -0.9493    0.0000 O   0  0  0  0  0  0  0  0  0
    4.0087   -1.6168    0.0000 C   0  0  0  0  0  0  0  0  0
    4.3442   -2.3705    0.0000 C   0  0  0  0  0  0  0  0  0
    3.8593   -3.0379    0.0000 N   0  0  0  0  0  0  0  0  0
    4.1949   -3.7916    0.0000 C   0  0  0  0  0  0  0  0  0
    3.7099   -4.4590    0.0000 C   0  0  0  0  0  0  0  0  0
    2.8895   -4.3728    0.0000 C   0  0  0  0  0  0  0  0  0
    2.5539   -3.6191    0.0000 C   0  0  0  0  0  0  0  0  0
    3.0388   -2.9517    0.0000 C   0  0  0  0  0  0  0  0  0
    3.3376   -0.1094    0.0000 C   0  0  0  0  0  0  0  0  0
    2.8526   -0.7769    0.0000 O   0  0  0  0  0  0  0  0  0
    2.0322   -0.6906    0.0000 C   0  0  0  0  0  0  0  0  0
    3.0020    0.6442    0.0000 C   0  0  0  0  0  0  0  0  0
    3.4869    1.3117    0.0000 C   0  0  0  0  0  0  0  0  0
    4.5374    2.6775    0.0000 C   0  0  0  0  0  0  0  0  0
    3.7528    2.9324    0.0000 O   0  0  0  0  0  0  0  0  0
    4.4904    4.3999    0.0000 C   0  0  0  0  0  0  0  0  0
    4.4904    5.2249    0.0000 C   0  0  0  0  0  0  0  0  0
    3.7759    5.6374    0.0000 F   0  0  0  0  0  0  0  0  0
    5.2048    5.6374    0.0000 C   0  0  0  0  0  0  0  0  0
  1  2  1  0  0  0  0
  2  3  4  0  0  0  0
  2 31  4  0  0  0  0
  3  4  4  0  0  0  0
  4  5  1  0  0  0  0
  4 28  4  0  0  0  0
  5  6  1  0  0  0  0
  5 26  1  0  0  0  0
  6  7  2  0  0  0  0
  7  8  1  0  0  0  0
  8  9  1  0  0  0  0
  8 26  1  0  0  0  0
  9 10  4  0  0  0  0
  9 25  4  0  0  0  0
 10 11  4  0  0  0  0
 11 12  1  0  0  0  0
 11 21  4  0  0  0  0
 12 13  1  0  0  0  0
 13 14  1  0  0  0  0
 14 15  1  0  0  0  0
 15 16  1  0  0  0  0
 15 20  1  0  0  0  0
 16 17  1  0  0  0  0
 17 18  1  0  0  0  0
 18 19  1  0  0  0  0
 19 20  1  0  0  0  0
 21 22  1  0  0  0  0
 21 24  4  0  0  0  0
 22 23  1  0  0  0  0
 24 25  4  0  0  0  0
 26 27  2  0  0  0  0
 28 29  4  0  0  0  0
 29 30  1  0  0  0  0
 29 31  4  0  0  0  0
M  END
>  <Name_Molregno>
330719

>  <5-HT2A>
5

>  <5-HT2C>
8.1

$$$$
330720
  Marvin  02231216192D 0   1.00000     0.00000     0

 31 34  0  0  0  0  0  0  0  0999 V2000
    5.2734    1.4186    0.0000 F   0  0  0  0  0  0  0  0  0
    4.5590    1.0061    0.0000 C   0  0  0  0  0  0  0  0  0
    4.5590    0.1811    0.0000 C   0  0  0  0  0  0  0  0  0
    3.8445   -0.2314    0.0000 C   0  0  0  0  0  0  0  0  0
    3.8445   -1.0564    0.0000 N   0  0  0  0  0  0  0  0  0
    4.5119   -1.5413    0.0000 C   0  0  0  0  0  0  0  0  0
    5.2966   -1.2864    0.0000 O   0  0  0  0  0  0  0  0  0
    4.2570   -2.3259    0.0000 C   0  0  0  0  0  0  0  0  0
    3.4320   -2.3259    0.0000 N   0  0  0  0  0  0  0  0  0
    2.9471   -2.9934    0.0000 C   0  0  0  0  0  0  0  0  0
    3.2826   -3.7471    0.0000 C   0  0  0  0  0  0  0  0  0
    2.7977   -4.4145    0.0000 C   0  0  0  0  0  0  0  0  0
    3.1333   -5.1682    0.0000 O   0  0  0  0  0  0  0  0  0
    2.6483   -5.8356    0.0000 C   0  0  0  0  0  0  0  0  0
    2.9839   -6.5893    0.0000 C   0  0  0  0  0  0  0  0  0
    2.4990   -7.2567    0.0000 N   0  0  0  0  0  0  0  0  0
    2.8345   -8.0104    0.0000 C   0  0  0  0  0  0  0  0  0
    2.3496   -8.6778    0.0000 C   0  0  0  0  0  0  0  0  0
    1.5291   -8.5916    0.0000 C   0  0  0  0  0  0  0  0  0
    1.1936   -7.8379    0.0000 C   0  0  0  0  0  0  0  0  0
    1.6785   -7.1705    0.0000 C   0  0  0  0  0  0  0  0  0
    1.9772   -4.3283    0.0000 C   0  0  0  0  0  0  0  0  0
    1.4923   -4.9957    0.0000 O   0  0  0  0  0  0  0  0  0
    0.6718   -4.9095    0.0000 C   0  0  0  0  0  0  0  0  0
    1.6417   -3.5746    0.0000 C   0  0  0  0  0  0  0  0  0
    2.1266   -2.9072    0.0000 C   0  0  0  0  0  0  0  0  0
    3.1771   -1.5413    0.0000 C   0  0  0  0  0  0  0  0  0
    2.3924   -1.2864    0.0000 O   0  0  0  0  0  0  0  0  0
    3.1300    0.1811    0.0000 C   0  0  0  0  0  0  0  0  0
    3.1300    1.0061    0.0000 C   0  0  0  0  0  0  0  0  0
    3.8445    1.4186    0.0000 C   0  0  0  0  0  0  0  0  0
  1  2  1  0  0  0  0
  2  3  4  0  0  0  0
  2 31  4  0  0  0  0
  3  4  4  0  0  0  0
  4  5  1  0  0  0  0
  4 29  4  0  0  0  0
  5  6  1  0  0  0  0
  5 27  1  0  0  0  0
  6  7  2  0  0  0  0
  6  8  1  0  0  0  0
  8  9  1  0  0  0  0
  9 10  1  0  0  0  0
  9 27  1  0  0  0  0
 10 11  4  0  0  0  0
 10 26  4  0  0  0  0
 11 12  4  0  0  0  0
 12 13  1  0  0  0  0
 12 22  4  0  0  0  0
 13 14  1  0  0  0  0
 14 15  1  0  0  0  0
 15 16  1  0  0  0  0
 16 17  1  0  0  0  0
 16 21  1  0  0  0  0
 17 18  1  0  0  0  0
 18 19  1  0  0  0  0
 19 20  1  0  0  0  0
 20 21  1  0  0  0  0
 22 23  1  0  0  0  0
 22 25  4  0  0  0  0
 23 24  1  0  0  0  0
 25 26  4  0  0  0  0
 27 28  2  0  0  0  0
 29 30  4  0  0  0  0
 30 31  4  0  0  0  0
M  END
>  <Name_Molregno>
330720

>  <5-HT2A>
5

>  <5-HT2C>
7.3

$$$$
330727
  Marvin  02231216192D 0   1.00000     0.00000     0

 31 34  0  0  0  0  0  0  0  0999 V2000
    6.6338    5.6374    0.0000 F   0  0  0  0  0  0  0  0  0
    5.9193    5.2249    0.0000 C   0  0  0  0  0  0  0  0  0
    5.9193    4.3999    0.0000 C   0  0  0  0  0  0  0  0  0
    5.2048    3.9874    0.0000 C   0  0  0  0  0  0  0  0  0
    5.2048    3.1624    0.0000 N   0  0  0  0  0  0  0  0  0
    5.8723    2.6775    0.0000 C   0  0  0  0  0  0  0  0  0
    5.6173    1.8929    0.0000 C   0  0  0  0  0  0  0  0  0
    4.7923    1.8929    0.0000 N   0  0  0  0  0  0  0  0  0
    4.3074    1.2254    0.0000 C   0  0  0  0  0  0  0  0  0
    4.6430    0.4718    0.0000 C   0  0  0  0  0  0  0  0  0
    4.1580   -0.1957    0.0000 C   0  0  0  0  0  0  0  0  0
    4.4936   -0.9493    0.0000 O   0  0  0  0  0  0  0  0  0
    4.0087   -1.6168    0.0000 C   0  0  0  0  0  0  0  0  0
    4.3442   -2.3705    0.0000 C   0  0  0  0  0  0  0  0  0
    3.8593   -3.0379    0.0000 N   0  0  0  0  0  0  0  0  0
    4.1949   -3.7916    0.0000 C   0  0  0  0  0  0  0  0  0
    3.7099   -4.4590    0.0000 C   0  0  0  0  0  0  0  0  0
    2.8895   -4.3728    0.0000 C   0  0  0  0  0  0  0  0  0
    2.5539   -3.6191    0.0000 C   0  0  0  0  0  0  0  0  0
    3.0388   -2.9517    0.0000 C   0  0  0  0  0  0  0  0  0
    3.3376   -0.1094    0.0000 C   0  0  0  0  0  0  0  0  0
    2.8526   -0.7769    0.0000 O   0  0  0  0  0  0  0  0  0
    2.0322   -0.6906    0.0000 C   0  0  0  0  0  0  0  0  0
    3.0020    0.6442    0.0000 C   0  0  0  0  0  0  0  0  0
    3.4869    1.3117    0.0000 C   0  0  0  0  0  0  0  0  0
    4.5374    2.6775    0.0000 C   0  0  0  0  0  0  0  0  0
    3.7528    2.9324    0.0000 O   0  0  0  0  0  0  0  0  0
    4.4904    4.3999    0.0000 C   0  0  0  0  0  0  0  0  0
    4.4904    5.2249    0.0000 C   0  0  0  0  0  0  0  0  0
    3.7759    5.6374    0.0000 F   0  0  0  0  0  0  0  0  0
    5.2048    5.6374    0.0000 C   0  0  0  0  0  0  0  0  0
  1  2  1  0  0  0  0
  2  3  4  0  0  0  0
  2 31  4  0  0  0  0
  3  4  4  0  0  0  0
  4  5  1  0  0  0  0
  4 28  4  0  0  0  0
  5  6  1  0  0  0  0
  5 26  1  0  0  0  0
  6  7  1  0  0  0  0
  7  8  1  0  0  0  0
  8  9  1  0  0  0  0
  8 26  1  0  0  0  0
  9 10  4  0  0  0  0
  9 25  4  0  0  0  0
 10 11  4  0  0  0  0
 11 12  1  0  0  0  0
 11 21  4  0  0  0  0
 12 13  1  0  0  0  0
 13 14  1  0  0  0  0
 14 15  1  0  0  0  0
 15 16  1  0  0  0  0
 15 20  1  0  0  0  0
 16 17  1  0  0  0  0
 17 18  1  0  0  0  0
 18 19  1  0  0  0  0
 19 20  1  0  0  0  0
 21 22  1  0  0  0  0
 21 24  4  0  0  0  0
 22 23  1  0  0  0  0
 24 25  4  0  0  0  0
 26 27  2  0  0  0  0
 28 29  4  0  0  0  0
 29 30  1  0  0  0  0
 29 31  4  0  0  0  0
M  END
>  <Name_Molregno>
330727

>  <5-HT2A>
5

>  <5-HT2C>
9

$$$$
331109
  Marvin  02231216192D 0   1.00000     0.00000     0

 16 17  0  0  0  0  0  0  0  0999 V2000
    1.4108    0.5592    0.0000 O   0  0  0  0  0  0  0  0  0
    1.4108    1.3842    0.0000 C   0  0  0  0  0  0  0  0  0
    0.6964    1.7967    0.0000 C   0  0  0  0  0  0  0  0  0
    0.6964    2.6217    0.0000 C   0  0  0  0  0  0  0  0  0
   -0.0882    2.8766    0.0000 N   0  0  0  0  0  0  0  0  0
   -0.5732    2.2092    0.0000 C   0  0  0  0  0  0  0  0  0
   -0.0882    1.5418    0.0000 C   0  0  0  0  0  0  0  0  0
   -0.3432    0.7571    0.0000 C   0  0  0  0  0  0  0  0  0
   -1.1502    0.5856    0.0000 C   0  0  0  0  0  0  0  0  0
   -1.4051   -0.1990    0.0000 N   0  0  0  0  0  0  0  0  0
   -2.2121   -0.3705    0.0000 C   0  0  0  0  0  0  0  0  0
   -0.8531   -0.8121    0.0000 C   0  0  0  0  0  0  0  0  0
   -0.3432    3.6613    0.0000 C   0  0  0  0  0  0  0  0  0
    1.4108    3.0342    0.0000 C   0  0  0  0  0  0  0  0  0
    2.1253    2.6217    0.0000 C   0  0  0  0  0  0  0  0  0
    2.1253    1.7967    0.0000 C   0  0  0  0  0  0  0  0  0
  1  2  1  0  0  0  0
  2  3  4  0  0  0  0
  2 16  4  0  0  0  0
  3  4  4  0  0  0  0
  3  7  4  0  0  0  0
  4  5  4  0  0  0  0
  4 14  4  0  0  0  0
  5  6  4  0  0  0  0
  5 13  1  0  0  0  0
  6  7  4  0  0  0  0
  7  8  1  0  0  0  0
  8  9  1  0  0  0  0
  9 10  1  0  0  0  0
 10 11  1  0  0  0  0
 10 12  1  0  0  0  0
 14 15  4  0  0  0  0
 15 16  4  0  0  0  0
M  END
>  <Name_Molregno>
331109

>  <5-HT2A>
6.05

>  <5-HT2C>
7.81

$$$$
331114
  Marvin  02231216192D 0   1.00000     0.00000     0

 20 21  0  0  0  0  0  0  0  0999 V2000
    0.7570   -2.7057    0.0000 P   0  0  0  0  0  0  0  0  0
    0.0425   -2.2932    0.0000 O   0  0  0  0  0  0  0  0  0
    0.0425   -1.4682    0.0000 C   0  0  0  0  0  0  0  0  0
   -0.6719   -1.0557    0.0000 C   0  0  0  0  0  0  0  0  0
   -0.6719   -0.2307    0.0000 C   0  0  0  0  0  0  0  0  0
   -1.4566    0.0242    0.0000 N   0  0  0  0  0  0  0  0  0
   -1.9415   -0.6432    0.0000 C   0  0  0  0  0  0  0  0  0
   -1.4566   -1.3106    0.0000 C   0  0  0  0  0  0  0  0  0
   -1.7115   -2.0953    0.0000 C   0  0  0  0  0  0  0  0  0
   -2.5185   -2.2668    0.0000 C   0  0  0  0  0  0  0  0  0
   -2.7734   -3.0514    0.0000 N   0  0  0  0  0  0  0  0  0
   -3.5804   -3.2229    0.0000 C   0  0  0  0  0  0  0  0  0
   -2.2214   -3.6645    0.0000 C   0  0  0  0  0  0  0  0  0
   -1.7115    0.8089    0.0000 C   0  0  0  0  0  0  0  0  0
    0.0425    0.1818    0.0000 C   0  0  0  0  0  0  0  0  0
    0.7570   -0.2307    0.0000 C   0  0  0  0  0  0  0  0  0
    0.7570   -1.0557    0.0000 C   0  0  0  0  0  0  0  0  0
    1.4715   -3.1182    0.0000 O   0  0  0  0  0  0  0  0  0
    0.3445   -3.4202    0.0000 O   0  0  0  0  0  0  0  0  0
    1.1695   -1.9912    0.0000 O   0  0  0  0  0  0  0  0  0
  1  2  1  0  0  0  0
  1 18  2  0  0  0  0
  1 19  1  0  0  0  0
  1 20  1  0  0  0  0
  2  3  1  0  0  0  0
  3  4  4  0  0  0  0
  3 17  4  0  0  0  0
  4  5  4  0  0  0  0
  4  8  4  0  0  0  0
  5  6  4  0  0  0  0
  5 15  4  0  0  0  0
  6  7  4  0  0  0  0
  6 14  1  0  0  0  0
  7  8  4  0  0  0  0
  8  9  1  0  0  0  0
  9 10  1  0  0  0  0
 10 11  1  0  0  0  0
 11 12  1  0  0  0  0
 11 13  1  0  0  0  0
 15 16  4  0  0  0  0
 16 17  4  0  0  0  0
M  END
>  <Name_Molregno>
331114

>  <5-HT2A>
5

>  <5-HT2C>
5.64

$$$$
331115
  Marvin  02231216192D 0   1.00000     0.00000     0

 19 20  0  0  0  0  0  0  0  0999 V2000
    3.1477   -0.7152    0.0000 O   0  0  0  0  0  0  0  0  0
    3.1477    0.1098    0.0000 C   0  0  0  0  0  0  0  0  0
    2.4332    0.5223    0.0000 C   0  0  0  0  0  0  0  0  0
    2.4332    1.3473    0.0000 C   0  0  0  0  0  0  0  0  0
    1.6486    1.6023    0.0000 N   0  0  0  0  0  0  0  0  0
    1.1636    0.9348    0.0000 C   0  0  0  0  0  0  0  0  0
    1.6486    0.2674    0.0000 C   0  0  0  0  0  0  0  0  0
    1.3936   -0.5172    0.0000 C   0  0  0  0  0  0  0  0  0
    1.9457   -1.1303    0.0000 C   0  0  0  0  0  0  0  0  0
    1.6907   -1.9150    0.0000 N   0  0  0  0  0  0  0  0  0
    2.2427   -2.5281    0.0000 C   0  0  0  0  0  0  0  0  0
    0.8837   -2.0865    0.0000 C   0  0  0  0  0  0  0  0  0
    1.3936    2.3869    0.0000 C   0  0  0  0  0  0  0  0  0
    0.5866    2.5584    0.0000 C   0  0  0  0  0  0  0  0  0
    0.3317    3.3430    0.0000 C   0  0  0  0  0  0  0  0  0
   -0.4753    3.5146    0.0000 C   0  0  0  0  0  0  0  0  0
    3.1477    1.7598    0.0000 C   0  0  0  0  0  0  0  0  0
    3.8621    1.3473    0.0000 C   0  0  0  0  0  0  0  0  0
    3.8621    0.5223    0.0000 C   0  0  0  0  0  0  0  0  0
  1  2  1  0  0  0  0
  2  3  4  0  0  0  0
  2 19  4  0  0  0  0
  3  4  4  0  0  0  0
  3  7  4  0  0  0  0
  4  5  4  0  0  0  0
  4 17  4  0  0  0  0
  5  6  4  0  0  0  0
  5 13  1  0  0  0  0
  6  7  4  0  0  0  0
  7  8  1  0  0  0  0
  8  9  1  0  0  0  0
  9 10  1  0  0  0  0
 10 11  1  0  0  0  0
 10 12  1  0  0  0  0
 13 14  1  0  0  0  0
 14 15  1  0  0  0  0
 15 16  1  0  0  0  0
 17 18  4  0  0  0  0
 18 19  4  0  0  0  0
M  END
>  <Name_Molregno>
331115

>  <5-HT2A>
6.51

>  <5-HT2C>
8.1

$$$$
331116
  Marvin  02231216192D 0   1.00000     0.00000     0

 23 24  0  0  0  0  0  0  0  0999 V2000
    3.6986   -0.5856    0.0000 P   0  0  0  0  0  0  0  0  0
    2.9842   -0.1731    0.0000 O   0  0  0  0  0  0  0  0  0
    2.9842    0.6519    0.0000 C   0  0  0  0  0  0  0  0  0
    2.2697    1.0644    0.0000 C   0  0  0  0  0  0  0  0  0
    2.2697    1.8894    0.0000 C   0  0  0  0  0  0  0  0  0
    1.4851    2.1444    0.0000 N   0  0  0  0  0  0  0  0  0
    1.0002    1.4769    0.0000 C   0  0  0  0  0  0  0  0  0
    1.4851    0.8095    0.0000 C   0  0  0  0  0  0  0  0  0
    1.2301    0.0249    0.0000 C   0  0  0  0  0  0  0  0  0
    1.7822   -0.5882    0.0000 C   0  0  0  0  0  0  0  0  0
    1.5272   -1.3728    0.0000 N   0  0  0  0  0  0  0  0  0
    2.0793   -1.9859    0.0000 C   0  0  0  0  0  0  0  0  0
    0.7203   -1.5444    0.0000 C   0  0  0  0  0  0  0  0  0
    1.2301    2.9290    0.0000 C   0  0  0  0  0  0  0  0  0
    0.4232    3.1005    0.0000 C   0  0  0  0  0  0  0  0  0
    0.1682    3.8851    0.0000 C   0  0  0  0  0  0  0  0  0
   -0.6387    4.0567    0.0000 C   0  0  0  0  0  0  0  0  0
    2.9842    2.3019    0.0000 C   0  0  0  0  0  0  0  0  0
    3.6986    1.8894    0.0000 C   0  0  0  0  0  0  0  0  0
    3.6986    1.0644    0.0000 C   0  0  0  0  0  0  0  0  0
    4.4131   -0.9981    0.0000 O   0  0  0  0  0  0  0  0  0
    3.2861   -1.3000    0.0000 O   0  0  0  0  0  0  0  0  0
    4.1111    0.1289    0.0000 O   0  0  0  0  0  0  0  0  0
  1  2  1  0  0  0  0
  1 21  2  0  0  0  0
  1 22  1  0  0  0  0
  1 23  1  0  0  0  0
  2  3  1  0  0  0  0
  3  4  4  0  0  0  0
  3 20  4  0  0  0  0
  4  5  4  0  0  0  0
  4  8  4  0  0  0  0
  5  6  4  0  0  0  0
  5 18  4  0  0  0  0
  6  7  4  0  0  0  0
  6 14  1  0  0  0  0
  7  8  4  0  0  0  0
  8  9  1  0  0  0  0
  9 10  1  0  0  0  0
 10 11  1  0  0  0  0
 11 12  1  0  0  0  0
 11 13  1  0  0  0  0
 14 15  1  0  0  0  0
 15 16  1  0  0  0  0
 16 17  1  0  0  0  0
 18 19  4  0  0  0  0
 19 20  4  0  0  0  0
M  END
>  <Name_Molregno>
331116

>  <5-HT2A>
5.52

>  <5-HT2C>
6.91

$$$$
331122
  Marvin  02231216192D 0   1.00000     0.00000     0

 15 16  0  0  0  0  0  0  0  0999 V2000
    5.4057   -1.4624    0.0000 O   0  0  0  0  0  0  0  0  0
    4.6912   -1.0499    0.0000 C   0  0  0  0  0  0  0  0  0
    3.9767   -1.4624    0.0000 C   0  0  0  0  0  0  0  0  0
    3.2623   -1.0499    0.0000 C   0  0  0  0  0  0  0  0  0
    2.4776   -1.3048    0.0000 N   0  0  0  0  0  0  0  0  0
    1.9927   -0.6374    0.0000 C   0  0  0  0  0  0  0  0  0
    2.4776    0.0301    0.0000 C   0  0  0  0  0  0  0  0  0
    3.2623   -0.2249    0.0000 C   0  0  0  0  0  0  0  0  0
    3.9767    0.1876    0.0000 C   0  0  0  0  0  0  0  0  0
    4.6912   -0.2249    0.0000 C   0  0  0  0  0  0  0  0  0
    2.2227    0.8147    0.0000 C   0  0  0  0  0  0  0  0  0
    1.4157    0.9862    0.0000 C   0  0  0  0  0  0  0  0  0
    1.1608    1.7709    0.0000 N   0  0  0  0  0  0  0  0  0
    0.3538    1.9424    0.0000 C   0  0  0  0  0  0  0  0  0
    1.7128    2.3840    0.0000 C   0  0  0  0  0  0  0  0  0
  1  2  1  0  0  0  0
  2  3  4  0  0  0  0
  2 10  4  0  0  0  0
  3  4  4  0  0  0  0
  4  5  4  0  0  0  0
  4  8  4  0  0  0  0
  5  6  4  0  0  0  0
  6  7  4  0  0  0  0
  7  8  4  0  0  0  0
  7 11  1  0  0  0  0
  8  9  4  0  0  0  0
  9 10  4  0  0  0  0
 11 12  1  0  0  0  0
 12 13  1  0  0  0  0
 13 14  1  0  0  0  0
 13 15  1  0  0  0  0
M  STY  1   1 DAT
M  SAL   1  1   5
M  SDT   1 MRV_IMPLICIT_H                                        
M  SDD   1     0.0000    0.0000    DR    ALL  0       0  
M  SED   1 IMPL_H1
M  END
>  <Name_Molregno>
331122

>  <5-HT2A>
5.12

>  <5-HT2C>
5.09

$$$$
331123
  Marvin  02231216192D 0   1.00000     0.00000     0

 16 17  0  0  0  0  0  0  0  0999 V2000
    0.6269   -2.2117    0.0000 O   0  0  0  0  0  0  0  0  0
    0.6269   -1.3867    0.0000 C   0  0  0  0  0  0  0  0  0
   -0.0875   -0.9742    0.0000 C   0  0  0  0  0  0  0  0  0
   -0.0875   -0.1492    0.0000 C   0  0  0  0  0  0  0  0  0
   -0.8722    0.1057    0.0000 N   0  0  0  0  0  0  0  0  0
   -1.3571   -0.5617    0.0000 C   0  0  0  0  0  0  0  0  0
   -2.1821   -0.5617    0.0000 C   0  0  0  0  0  0  0  0  0
   -0.8722   -1.2292    0.0000 C   0  0  0  0  0  0  0  0  0
   -1.1271   -2.0138    0.0000 C   0  0  0  0  0  0  0  0  0
   -1.9341   -2.1853    0.0000 C   0  0  0  0  0  0  0  0  0
   -2.1890   -2.9699    0.0000 N   0  0  0  0  0  0  0  0  0
   -2.9960   -3.1415    0.0000 C   0  0  0  0  0  0  0  0  0
   -1.6370   -3.5830    0.0000 C   0  0  0  0  0  0  0  0  0
    0.6269    0.2633    0.0000 C   0  0  0  0  0  0  0  0  0
    1.3414   -0.1492    0.0000 C   0  0  0  0  0  0  0  0  0
    1.3414   -0.9742    0.0000 C   0  0  0  0  0  0  0  0  0
  1  2  1  0  0  0  0
  2  3  4  0  0  0  0
  2 16  4  0  0  0  0
  3  4  4  0  0  0  0
  3  8  4  0  0  0  0
  4  5  4  0  0  0  0
  4 14  4  0  0  0  0
  5  6  4  0  0  0  0
  6  7  1  0  0  0  0
  6  8  4  0  0  0  0
  8  9  1  0  0  0  0
  9 10  1  0  0  0  0
 10 11  1  0  0  0  0
 11 12  1  0  0  0  0
 11 13  1  0  0  0  0
 14 15  4  0  0  0  0
 15 16  4  0  0  0  0
M  STY  1   1 DAT
M  SAL   1  1   5
M  SDT   1 MRV_IMPLICIT_H                                        
M  SDD   1     0.0000    0.0000    DR    ALL  0       0  
M  SED   1 IMPL_H1
M  END
>  <Name_Molregno>
331123

>  <5-HT2A>
6.91

>  <5-HT2C>
6.27

$$$$
331124
  Marvin  02231216192D 0   1.00000     0.00000     0

 15 16  0  0  0  0  0  0  0  0999 V2000
    1.2794   -2.2041    0.0000 F   0  0  0  0  0  0  0  0  0
    1.2794   -1.3791    0.0000 C   0  0  0  0  0  0  0  0  0
    0.5650   -0.9666    0.0000 C   0  0  0  0  0  0  0  0  0
    0.5650   -0.1416    0.0000 C   0  0  0  0  0  0  0  0  0
   -0.2197    0.1134    0.0000 N   0  0  0  0  0  0  0  0  0
   -0.7046   -0.5541    0.0000 C   0  0  0  0  0  0  0  0  0
   -0.2197   -1.2215    0.0000 C   0  0  0  0  0  0  0  0  0
   -0.4746   -2.0061    0.0000 C   0  0  0  0  0  0  0  0  0
   -1.2816   -2.1777    0.0000 C   0  0  0  0  0  0  0  0  0
   -1.5365   -2.9623    0.0000 N   0  0  0  0  0  0  0  0  0
   -2.3435   -3.1338    0.0000 C   0  0  0  0  0  0  0  0  0
   -0.9845   -3.5754    0.0000 C   0  0  0  0  0  0  0  0  0
    1.2794    0.2709    0.0000 C   0  0  0  0  0  0  0  0  0
    1.9939   -0.1416    0.0000 C   0  0  0  0  0  0  0  0  0
    1.9939   -0.9666    0.0000 C   0  0  0  0  0  0  0  0  0
  1  2  1  0  0  0  0
  2  3  4  0  0  0  0
  2 15  4  0  0  0  0
  3  4  4  0  0  0  0
  3  7  4  0  0  0  0
  4  5  4  0  0  0  0
  4 13  4  0  0  0  0
  5  6  4  0  0  0  0
  6  7  4  0  0  0  0
  7  8  1  0  0  0  0
  8  9  1  0  0  0  0
  9 10  1  0  0  0  0
 10 11  1  0  0  0  0
 10 12  1  0  0  0  0
 13 14  4  0  0  0  0
 14 15  4  0  0  0  0
M  STY  1   1 DAT
M  SAL   1  1   5
M  SDT   1 MRV_IMPLICIT_H                                        
M  SDD   1     0.0000    0.0000    DR    ALL  0       0  
M  SED   1 IMPL_H1
M  END
>  <Name_Molregno>
331124

>  <5-HT2A>
6.47

>  <5-HT2C>
7.09

$$$$
331128
  Marvin  02231216192D 0   1.00000     0.00000     0

 19 21  0  0  0  0  0  0  0  0999 V2000
    0.9717    1.3197    0.0000 O   0  0  0  0  0  0  0  0  0
    0.9717    2.1447    0.0000 C   0  0  0  0  0  0  0  0  0
    0.2572    2.5572    0.0000 C   0  0  0  0  0  0  0  0  0
    0.2572    3.3822    0.0000 C   0  0  0  0  0  0  0  0  0
   -0.5274    3.6371    0.0000 N   0  0  0  0  0  0  0  0  0
   -1.0123    2.9697    0.0000 C   0  0  0  0  0  0  0  0  0
   -0.5274    2.3022    0.0000 C   0  0  0  0  0  0  0  0  0
   -0.7824    1.5176    0.0000 C   0  0  0  0  0  0  0  0  0
   -1.5893    1.3461    0.0000 C   0  0  0  0  0  0  0  0  0
   -1.8443    0.5615    0.0000 N   0  0  0  0  0  0  0  0  0
   -1.2922   -0.0516    0.0000 C   0  0  0  0  0  0  0  0  0
   -1.5472   -0.8363    0.0000 C   0  0  0  0  0  0  0  0  0
   -2.3542   -1.0078    0.0000 N   0  0  0  0  0  0  0  0  0
   -2.9062   -0.3947    0.0000 C   0  0  0  0  0  0  0  0  0
   -2.6512    0.3899    0.0000 C   0  0  0  0  0  0  0  0  0
   -2.6091   -1.7924    0.0000 C   0  0  0  0  0  0  0  0  0
    0.9717    3.7947    0.0000 C   0  0  0  0  0  0  0  0  0
    1.6861    3.3822    0.0000 C   0  0  0  0  0  0  0  0  0
    1.6861    2.5572    0.0000 C   0  0  0  0  0  0  0  0  0
  1  2  1  0  0  0  0
  2  3  4  0  0  0  0
  2 19  4  0  0  0  0
  3  4  4  0  0  0  0
  3  7  4  0  0  0  0
  4  5  4  0  0  0  0
  4 17  4  0  0  0  0
  5  6  4  0  0  0  0
  6  7  4  0  0  0  0
  7  8  1  0  0  0  0
  8  9  1  0  0  0  0
  9 10  1  0  0  0  0
 10 11  1  0  0  0  0
 10 15  1  0  0  0  0
 11 12  1  0  0  0  0
 12 13  1  0  0  0  0
 13 14  1  0  0  0  0
 13 16  1  0  0  0  0
 14 15  1  0  0  0  0
 17 18  4  0  0  0  0
 18 19  4  0  0  0  0
M  STY  1   1 DAT
M  SAL   1  1   5
M  SDT   1 MRV_IMPLICIT_H                                        
M  SDD   1     0.0000    0.0000    DR    ALL  0       0  
M  SED   1 IMPL_H1
M  END
>  <Name_Molregno>
331128

>  <5-HT2A>
5.01

>  <5-HT2C>
6.99

$$$$
331133
  Marvin  02231216192D 0   1.00000     0.00000     0

 17 19  0  0  0  0  0  0  0  0999 V2000
    1.1266    0.9727    0.0000 O   0  0  0  0  0  0  0  0  0
    1.1266    1.7977    0.0000 C   0  0  0  0  0  0  0  0  0
    0.4122    2.2102    0.0000 C   0  0  0  0  0  0  0  0  0
    0.4122    3.0352    0.0000 C   0  0  0  0  0  0  0  0  0
   -0.3725    3.2902    0.0000 N   0  0  0  0  0  0  0  0  0
   -0.8574    2.6227    0.0000 C   0  0  0  0  0  0  0  0  0
   -0.3725    1.9553    0.0000 C   0  0  0  0  0  0  0  0  0
   -0.6274    1.1707    0.0000 C   0  0  0  0  0  0  0  0  0
   -1.4344    0.9992    0.0000 C   0  0  0  0  0  0  0  0  0
   -1.6893    0.2145    0.0000 N   0  0  0  0  0  0  0  0  0
   -1.2044   -0.4529    0.0000 C   0  0  0  0  0  0  0  0  0
   -1.6893   -1.1203    0.0000 C   0  0  0  0  0  0  0  0  0
   -2.4739   -0.8654    0.0000 C   0  0  0  0  0  0  0  0  0
   -2.4739   -0.0404    0.0000 C   0  0  0  0  0  0  0  0  0
    1.1266    3.4477    0.0000 C   0  0  0  0  0  0  0  0  0
    1.8411    3.0352    0.0000 C   0  0  0  0  0  0  0  0  0
    1.8411    2.2102    0.0000 C   0  0  0  0  0  0  0  0  0
  1  2  1  0  0  0  0
  2  3  4  0  0  0  0
  2 17  4  0  0  0  0
  3  4  4  0  0  0  0
  3  7  4  0  0  0  0
  4  5  4  0  0  0  0
  4 15  4  0  0  0  0
  5  6  4  0  0  0  0
  6  7  4  0  0  0  0
  7  8  1  0  0  0  0
  8  9  1  0  0  0  0
  9 10  1  0  0  0  0
 10 11  1  0  0  0  0
 10 14  1  0  0  0  0
 11 12  1  0  0  0  0
 12 13  1  0  0  0  0
 13 14  1  0  0  0  0
 15 16  4  0  0  0  0
 16 17  4  0  0  0  0
M  STY  1   1 DAT
M  SAL   1  1   5
M  SDT   1 MRV_IMPLICIT_H                                        
M  SDD   1     0.0000    0.0000    DR    ALL  0       0  
M  SED   1 IMPL_H1
M  END
>  <Name_Molregno>
331133

>  <5-HT2A>
6.37

>  <5-HT2C>
6.15

$$$$
331134
  Marvin  02231216192D 0   1.00000     0.00000     0

 14 15  0  0  0  0  0  0  0  0999 V2000
    0.7005   -2.5018    0.0000 O   0  0  0  0  0  0  0  0  0
    0.7005   -1.6768    0.0000 C   0  0  0  0  0  0  0  0  0
   -0.0139   -1.2643    0.0000 C   0  0  0  0  0  0  0  0  0
   -0.0139   -0.4393    0.0000 C   0  0  0  0  0  0  0  0  0
   -0.7986   -0.1843    0.0000 N   0  0  0  0  0  0  0  0  0
   -1.2835   -0.8518    0.0000 C   0  0  0  0  0  0  0  0  0
   -0.7986   -1.5192    0.0000 C   0  0  0  0  0  0  0  0  0
   -1.0535   -2.3038    0.0000 C   0  0  0  0  0  0  0  0  0
   -1.8605   -2.4753    0.0000 N   0  0  0  0  0  0  0  0  0
   -2.1154   -3.2600    0.0000 C   0  0  0  0  0  0  0  0  0
   -2.4125   -1.8622    0.0000 C   0  0  0  0  0  0  0  0  0
    0.7005   -0.0268    0.0000 C   0  0  0  0  0  0  0  0  0
    1.4150   -0.4393    0.0000 C   0  0  0  0  0  0  0  0  0
    1.4150   -1.2643    0.0000 C   0  0  0  0  0  0  0  0  0
  1  2  1  0  0  0  0
  2  3  4  0  0  0  0
  2 14  4  0  0  0  0
  3  4  4  0  0  0  0
  3  7  4  0  0  0  0
  4  5  4  0  0  0  0
  4 12  4  0  0  0  0
  5  6  4  0  0  0  0
  6  7  4  0  0  0  0
  7  8  1  0  0  0  0
  8  9  1  0  0  0  0
  9 10  1  0  0  0  0
  9 11  1  0  0  0  0
 12 13  4  0  0  0  0
 13 14  4  0  0  0  0
M  STY  1   1 DAT
M  SAL   1  1   5
M  SDT   1 MRV_IMPLICIT_H                                        
M  SDD   1     0.0000    0.0000    DR    ALL  0       0  
M  SED   1 IMPL_H1
M  END
>  <Name_Molregno>
331134

>  <5-HT2A>
6.03

>  <5-HT2C>
7.76

$$$$
331139
  Marvin  02231216192D 0   1.00000     0.00000     0

 15 16  0  0  0  0  0  0  0  0999 V2000
    0.7645   -2.7709    0.0000 O   0  0  0  0  0  0  0  0  0
    0.7645   -1.9459    0.0000 C   0  0  0  0  0  0  0  0  0
    0.0500   -1.5334    0.0000 C   0  0  0  0  0  0  0  0  0
    0.0500   -0.7084    0.0000 C   0  0  0  0  0  0  0  0  0
   -0.7346   -0.4535    0.0000 N   0  0  0  0  0  0  0  0  0
   -1.2195   -1.1209    0.0000 C   0  0  0  0  0  0  0  0  0
   -0.7346   -1.7884    0.0000 C   0  0  0  0  0  0  0  0  0
   -0.9895   -2.5730    0.0000 C   0  0  0  0  0  0  0  0  0
   -1.7965   -2.7445    0.0000 N   0  0  0  0  0  0  0  0  0
   -2.0514   -3.5291    0.0000 C   0  0  0  0  0  0  0  0  0
   -2.3485   -2.1314    0.0000 C   0  0  0  0  0  0  0  0  0
   -0.9895    0.3311    0.0000 C   0  0  0  0  0  0  0  0  0
    0.7645   -0.2959    0.0000 C   0  0  0  0  0  0  0  0  0
    1.4790   -0.7084    0.0000 C   0  0  0  0  0  0  0  0  0
    1.4790   -1.5334    0.0000 C   0  0  0  0  0  0  0  0  0
  1  2  1  0  0  0  0
  2  3  4  0  0  0  0
  2 15  4  0  0  0  0
  3  4  4  0  0  0  0
  3  7  4  0  0  0  0
  4  5  4  0  0  0  0
  4 13  4  0  0  0  0
  5  6  4  0  0  0  0
  5 12  1  0  0  0  0
  6  7  4  0  0  0  0
  7  8  1  0  0  0  0
  8  9  1  0  0  0  0
  9 10  1  0  0  0  0
  9 11  1  0  0  0  0
 13 14  4  0  0  0  0
 14 15  4  0  0  0  0
M  END
>  <Name_Molregno>
331139

>  <5-HT2A>
6.3

>  <5-HT2C>
6.98

$$$$
331140
  Marvin  02231216192D 0   1.00000     0.00000     0

 16 17  0  0  0  0  0  0  0  0999 V2000
   -0.7597   -0.0772    0.0000 O   0  0  0  0  0  0  0  0  0
   -1.3117   -0.6902    0.0000 C   0  0  0  0  0  0  0  0  0
   -1.0568   -1.4749    0.0000 C   0  0  0  0  0  0  0  0  0
   -1.6088   -2.0880    0.0000 C   0  0  0  0  0  0  0  0  0
   -1.1963   -2.8024    0.0000 N   0  0  0  0  0  0  0  0  0
   -0.3893   -2.6309    0.0000 C   0  0  0  0  0  0  0  0  0
   -0.3031   -1.8104    0.0000 C   0  0  0  0  0  0  0  0  0
    0.4114   -1.3979    0.0000 C   0  0  0  0  0  0  0  0  0
    1.1259   -1.8104    0.0000 C   0  0  0  0  0  0  0  0  0
    1.8403   -1.3979    0.0000 C   0  0  0  0  0  0  0  0  0
    2.5548   -1.8104    0.0000 N   0  0  0  0  0  0  0  0  0
    3.2693   -1.3979    0.0000 C   0  0  0  0  0  0  0  0  0
    2.5548   -2.6354    0.0000 C   0  0  0  0  0  0  0  0  0
   -2.4158   -1.9164    0.0000 C   0  0  0  0  0  0  0  0  0
   -2.6707   -1.1318    0.0000 C   0  0  0  0  0  0  0  0  0
   -2.1187   -0.5187    0.0000 C   0  0  0  0  0  0  0  0  0
  1  2  1  0  0  0  0
  2  3  4  0  0  0  0
  2 16  4  0  0  0  0
  3  4  4  0  0  0  0
  3  7  4  0  0  0  0
  4  5  4  0  0  0  0
  4 14  4  0  0  0  0
  5  6  4  0  0  0  0
  6  7  4  0  0  0  0
  7  8  1  0  0  0  0
  8  9  1  0  0  0  0
  9 10  1  0  0  0  0
 10 11  1  0  0  0  0
 11 12  1  0  0  0  0
 11 13  1  0  0  0  0
 14 15  4  0  0  0  0
 15 16  4  0  0  0  0
M  STY  1   1 DAT
M  SAL   1  1   5
M  SDT   1 MRV_IMPLICIT_H                                        
M  SDD   1     0.0000    0.0000    DR    ALL  0       0  
M  SED   1 IMPL_H1
M  END
>  <Name_Molregno>
331140

>  <5-HT2A>
6.23

>  <5-HT2C>
6.51

$$$$
331141
  Marvin  02231216192D 0   1.00000     0.00000     0

 16 17  0  0  1  0  0  0  0  0999 V2000
    0.6000   -2.1053    0.0000 O   0  0  0  0  0  0  0  0  0
    0.6000   -1.2803    0.0000 C   0  0  0  0  0  0  0  0  0
   -0.1145   -0.8678    0.0000 C   0  0  0  0  0  0  0  0  0
   -0.1145   -0.0428    0.0000 C   0  0  0  0  0  0  0  0  0
   -0.8991    0.2121    0.0000 N   0  0  0  0  0  0  0  0  0
   -1.3840   -0.4553    0.0000 C   0  0  0  0  0  0  0  0  0
   -0.8991   -1.1228    0.0000 C   0  0  0  0  0  0  0  0  0
   -1.1540   -1.9074    0.0000 C   0  0  0  0  0  0  0  0  0
   -1.9610   -2.0789    0.0000 C   0  0  0  0  0  0  0  0  0
   -2.2159   -2.8635    0.0000 N   0  0  0  0  0  0  0  0  0
   -3.0229   -3.0351    0.0000 C   0  0  0  0  0  0  0  0  0
   -1.6639   -3.4766    0.0000 C   0  0  0  0  0  0  0  0  0
   -2.5130   -1.4658    0.0000 C   0  0  0  0  0  0  0  0  0
    0.6000    0.3697    0.0000 C   0  0  0  0  0  0  0  0  0
    1.3145   -0.0428    0.0000 C   0  0  0  0  0  0  0  0  0
    1.3145   -0.8678    0.0000 C   0  0  0  0  0  0  0  0  0
  1  2  1  0  0  0  0
  2  3  4  0  0  0  0
  2 16  4  0  0  0  0
  3  4  4  0  0  0  0
  3  7  4  0  0  0  0
  4  5  4  0  0  0  0
  4 14  4  0  0  0  0
  5  6  4  0  0  0  0
  6  7  4  0  0  0  0
  7  8  1  0  0  0  0
  8  9  1  0  0  0  0
  9 10  1  0  0  0  0
  9 13  1  0  0  0  0
 10 11  1  0  0  0  0
 10 12  1  0  0  0  0
 14 15  4  0  0  0  0
 15 16  4  0  0  0  0
M  STY  1   1 DAT
M  SAL   1  1   5
M  SDT   1 MRV_IMPLICIT_H                                        
M  SDD   1     0.0000    0.0000    DR    ALL  0       0  
M  SED   1 IMPL_H1
M  END
>  <Name_Molregno>
331141

>  <5-HT2A>
6.01

>  <5-HT2C>
6.9

$$$$
331559
  Marvin  02231216192D 0   1.00000     0.00000     0

 34 38  0  0  0  0  0  0  0  0999 V2000
   -9.0296   -2.3369    0.0000 O   0  0  0  0  0  0  0  0  0
   -9.0296   -3.1619    0.0000 C   0  0  0  0  0  0  0  0  0
   -9.7441   -1.9244    0.0000 C   0  0  0  0  0  0  0  0  0
  -10.4586   -2.3369    0.0000 C   0  0  0  0  0  0  0  0  0
  -11.1730   -1.9244    0.0000 C   0  0  0  0  0  0  0  0  0
  -11.1730   -1.0994    0.0000 C   0  0  0  0  0  0  0  0  0
  -10.4586   -0.6869    0.0000 C   0  0  0  0  0  0  0  0  0
   -9.7441   -1.0994    0.0000 C   0  0  0  0  0  0  0  0  0
   -9.0296   -0.6869    0.0000 N   0  0  0  0  0  0  0  0  0
   -9.0296    0.1381    0.0000 C   0  0  0  0  0  0  0  0  0
   -8.3151    0.5506    0.0000 C   0  0  0  0  0  0  0  0  0
   -7.6007    0.1381    0.0000 N   0  0  0  0  0  0  0  0  0
   -7.6007   -0.6869    0.0000 C   0  0  0  0  0  0  0  0  0
   -8.3151   -1.0994    0.0000 C   0  0  0  0  0  0  0  0  0
   -6.8862    0.5506    0.0000 C   0  0  0  0  0  0  0  0  0
   -6.1717    0.1381    0.0000 C   0  0  0  0  0  0  0  0  0
   -5.4573    0.5506    0.0000 C   0  0  0  0  0  0  0  0  0
   -4.7428    0.1381    0.0000 C   0  0  0  0  0  0  0  0  0
   -4.0283    0.5506    0.0000 N   0  0  0  0  0  0  0  0  0
   -3.3138    0.1381    0.0000 C   0  0  0  0  0  0  0  0  0
   -3.3138   -0.6869    0.0000 O   0  0  0  0  0  0  0  0  0
   -2.5994    0.5506    0.0000 C   0  0  0  0  0  0  0  0  0
   -1.8849    0.1381    0.0000 C   0  0  0  0  0  0  0  0  0
   -1.1704    0.5506    0.0000 C   0  0  0  0  0  0  0  0  0
   -0.3858    0.2956    0.0000 C   0  0  0  0  0  0  0  0  0
    0.0991    0.9631    0.0000 C   0  0  0  0  0  0  0  0  0
   -0.3858    1.6305    0.0000 C   0  0  0  0  0  0  0  0  0
   -1.1704    1.3756    0.0000 C   0  0  0  0  0  0  0  0  0
   -1.8849    1.7881    0.0000 C   0  0  0  0  0  0  0  0  0
   -2.5994    1.3756    0.0000 C   0  0  0  0  0  0  0  0  0
   -0.0503    2.3842    0.0000 C   0  0  0  0  0  0  0  0  0
    0.7702    2.4704    0.0000 C   0  0  0  0  0  0  0  0  0
    1.2551    1.8030    0.0000 C   0  0  0  0  0  0  0  0  0
    0.9196    1.0493    0.0000 C   0  0  0  0  0  0  0  0  0
  1  2  1  0  0  0  0
  1  3  1  0  0  0  0
  3  4  4  0  0  0  0
  3  8  4  0  0  0  0
  4  5  4  0  0  0  0
  5  6  4  0  0  0  0
  6  7  4  0  0  0  0
  7  8  4  0  0  0  0
  8  9  1  0  0  0  0
  9 10  1  0  0  0  0
  9 14  1  0  0  0  0
 10 11  1  0  0  0  0
 11 12  1  0  0  0  0
 12 13  1  0  0  0  0
 12 15  1  0  0  0  0
 13 14  1  0  0  0  0
 15 16  1  0  0  0  0
 16 17  1  0  0  0  0
 17 18  1  0  0  0  0
 18 19  1  0  0  0  0
 19 20  1  0  0  0  0
 20 21  2  0  0  0  0
 20 22  1  0  0  0  0
 22 23  4  0  0  0  0
 22 30  4  0  0  0  0
 23 24  4  0  0  0  0
 24 25  1  0  0  0  0
 24 28  4  0  0  0  0
 25 26  1  0  0  0  0
 26 27  4  0  0  0  0
 26 34  4  0  0  0  0
 27 28  1  0  0  0  0
 27 31  4  0  0  0  0
 28 29  4  0  0  0  0
 29 30  4  0  0  0  0
 31 32  4  0  0  0  0
 32 33  4  0  0  0  0
 33 34  4  0  0  0  0
M  END
>  <Name_Molregno>
331559

>  <5-HT1A>
7.47

>  <5-HT2A>
6.81

>  <5-HT2C>
6.49

>  <DOPAMINE D2>
7.26

>  <DOPAMINE D3>
9.4

>  <DOPAMINE D4>
6.37

$$$$
333105
  Marvin  02231216192D 0   1.00000     0.00000     0

 27 30  0  0  1  0  0  0  0  0999 V2000
    3.9922   -4.5739    0.0000 S   0  0  0  0  0  0  0  0  0
    3.7372   -5.3585    0.0000 C   0  0  0  0  0  0  0  0  0
    2.9122   -5.3585    0.0000 C   0  0  0  0  0  0  0  0  0
    2.6573   -4.5739    0.0000 C   0  0  0  0  0  0  0  0  0
    3.3247   -4.0889    0.0000 C   0  0  0  0  0  0  0  0  0
    3.3247   -3.2639    0.0000 C   0  0  0  0  0  0  0  0  0
    2.6102   -2.8514    0.0000 C   0  0  0  0  0  0  0  0  0
    2.6102   -2.0264    0.0000 C   0  0  0  0  0  0  0  0  0
    3.3247   -1.6139    0.0000 C   0  0  0  0  0  0  0  0  0
    4.0392   -2.0264    0.0000 C   0  0  0  0  0  0  0  0  0
    4.0392   -2.8514    0.0000 C   0  0  0  0  0  0  0  0  0
    3.3247   -0.7889    0.0000 C   0  0  0  0  0  0  0  0  0
    2.6102   -0.3764    0.0000 O   0  0  0  0  0  0  0  0  0
    4.0392   -0.3764    0.0000 N   0  0  0  0  0  0  0  0  0
    4.0392    0.4486    0.0000 C   0  0  0  0  0  0  0  0  0
    3.3717    0.9335    0.0000 C   0  0  0  0  0  0  0  0  0
    3.6267    1.7181    0.0000 C   0  0  0  0  0  0  0  0  0
    4.4517    1.7181    0.0000 N   0  0  0  0  0  0  0  0  0
    4.7066    0.9335    0.0000 C   0  0  0  0  0  0  0  0  0
    4.9366    2.3855    0.0000 C   0  0  0  0  0  0  0  0  0
    5.7571    2.2993    0.0000 C   0  0  0  0  0  0  0  0  0
    6.2420    2.9667    0.0000 C   0  0  0  0  0  0  0  0  0
    7.0625    2.8805    0.0000 C   0  0  0  0  0  0  0  0  0
    7.3981    2.1268    0.0000 C   0  0  0  0  0  0  0  0  0
    8.2185    2.0406    0.0000 F   0  0  0  0  0  0  0  0  0
    6.9131    1.4594    0.0000 C   0  0  0  0  0  0  0  0  0
    6.0926    1.5456    0.0000 C   0  0  0  0  0  0  0  0  0
  1  2  4  0  0  0  0
  1  5  4  0  0  0  0
  2  3  4  0  0  0  0
  3  4  4  0  0  0  0
  4  5  4  0  0  0  0
  5  6  1  0  0  0  0
  6  7  4  0  0  0  0
  6 11  4  0  0  0  0
  7  8  4  0  0  0  0
  8  9  4  0  0  0  0
  9 10  4  0  0  0  0
  9 12  1  0  0  0  0
 10 11  4  0  0  0  0
 12 13  2  0  0  0  0
 12 14  1  0  0  0  0
 14 15  1  0  0  0  0
 15 16  1  0  0  0  0
 15 19  1  0  0  0  0
 16 17  1  0  0  0  0
 17 18  1  0  0  0  0
 18 19  1  0  0  0  0
 18 20  1  0  0  0  0
 20 21  1  0  0  0  0
 21 22  4  0  0  0  0
 21 27  4  0  0  0  0
 22 23  4  0  0  0  0
 23 24  4  0  0  0  0
 24 25  1  0  0  0  0
 24 26  4  0  0  0  0
 26 27  4  0  0  0  0
M  END
>  <Name_Molregno>
333105

>  <5-HT2A>
7.85

>  <DOPAMINE D2>
5.82

>  <DOPAMINE D4>
8.3

$$$$
333168
  Marvin  02231216192D 0   1.00000     0.00000     0

 31 34  0  0  1  0  0  0  0  0999 V2000
    7.2380   -4.5866    0.0000 S   0  0  0  0  0  0  0  0  0
    6.9831   -5.3712    0.0000 C   0  0  0  0  0  0  0  0  0
    6.1581   -5.3712    0.0000 C   0  0  0  0  0  0  0  0  0
    5.9031   -4.5866    0.0000 C   0  0  0  0  0  0  0  0  0
    6.5706   -4.1016    0.0000 C   0  0  0  0  0  0  0  0  0
    6.5706   -3.2766    0.0000 C   0  0  0  0  0  0  0  0  0
    5.8561   -2.8641    0.0000 C   0  0  0  0  0  0  0  0  0
    5.8561   -2.0391    0.0000 C   0  0  0  0  0  0  0  0  0
    6.5706   -1.6266    0.0000 C   0  0  0  0  0  0  0  0  0
    7.2850   -2.0391    0.0000 C   0  0  0  0  0  0  0  0  0
    7.2850   -2.8641    0.0000 C   0  0  0  0  0  0  0  0  0
    5.1416   -1.6266    0.0000 C   0  0  0  0  0  0  0  0  0
    4.4271   -2.0391    0.0000 O   0  0  0  0  0  0  0  0  0
    5.1416   -0.8016    0.0000 N   0  0  0  0  0  0  0  0  0
    4.4271   -0.3891    0.0000 C   0  0  0  0  0  0  0  0  0
    3.6735   -0.7247    0.0000 C   0  0  0  0  0  0  0  0  0
    3.1214   -0.1116    0.0000 C   0  0  0  0  0  0  0  0  0
    3.5339    0.6029    0.0000 N   0  0  0  0  0  0  0  0  0
    4.3409    0.4313    0.0000 C   0  0  0  0  0  0  0  0  0
    3.1984    1.3565    0.0000 C   0  0  0  0  0  0  0  0  0
    3.6833    2.0240    0.0000 C   0  0  0  0  0  0  0  0  0
    3.3477    2.7777    0.0000 C   0  0  0  0  0  0  0  0  0
    3.8327    3.4451    0.0000 C   0  0  0  0  0  0  0  0  0
    4.6531    3.3589    0.0000 C   0  0  0  0  0  0  0  0  0
    5.1381    4.0263    0.0000 O   0  0  0  0  0  0  0  0  0
    4.8025    4.7800    0.0000 C   0  0  0  0  0  0  0  0  0
    4.4670    5.5337    0.0000 F   0  0  0  0  0  0  0  0  0
    5.5562    5.1155    0.0000 F   0  0  0  0  0  0  0  0  0
    4.0488    4.4444    0.0000 F   0  0  0  0  0  0  0  0  0
    4.9887    2.6052    0.0000 C   0  0  0  0  0  0  0  0  0
    4.5038    1.9378    0.0000 C   0  0  0  0  0  0  0  0  0
  1  2  4  0  0  0  0
  1  5  4  0  0  0  0
  2  3  4  0  0  0  0
  3  4  4  0  0  0  0
  4  5  4  0  0  0  0
  5  6  1  0  0  0  0
  6  7  4  0  0  0  0
  6 11  4  0  0  0  0
  7  8  4  0  0  0  0
  8  9  4  0  0  0  0
  8 12  1  0  0  0  0
  9 10  4  0  0  0  0
 10 11  4  0  0  0  0
 12 13  2  0  0  0  0
 12 14  1  0  0  0  0
 14 15  1  0  0  0  0
 15 16  1  0  0  0  0
 15 19  1  0  0  0  0
 16 17  1  0  0  0  0
 17 18  1  0  0  0  0
 18 19  1  0  0  0  0
 18 20  1  0  0  0  0
 20 21  1  0  0  0  0
 21 22  4  0  0  0  0
 21 31  4  0  0  0  0
 22 23  4  0  0  0  0
 23 24  4  0  0  0  0
 24 25  1  0  0  0  0
 24 30  4  0  0  0  0
 25 26  1  0  0  0  0
 26 27  1  0  0  0  0
 26 28  1  0  0  0  0
 26 29  1  0  0  0  0
 30 31  4  0  0  0  0
M  END
>  <Name_Molregno>
333168

>  <5-HT2A>
5.25

>  <DOPAMINE D2>
6.3

>  <DOPAMINE D4>
7.28

$$$$
333175
  Marvin  02231216192D 0   1.00000     0.00000     0

 28 31  0  0  1  0  0  0  0  0999 V2000
    2.7693    4.8894    0.0000 Cl  0  0  0  0  0  0  0  0  0
    2.7693    4.0644    0.0000 C   0  0  0  0  0  0  0  0  0
    3.4838    3.6519    0.0000 C   0  0  0  0  0  0  0  0  0
    3.4838    2.8269    0.0000 C   0  0  0  0  0  0  0  0  0
    2.7693    2.4144    0.0000 C   0  0  0  0  0  0  0  0  0
    2.0549    2.8269    0.0000 C   0  0  0  0  0  0  0  0  0
    2.0549    3.6519    0.0000 C   0  0  0  0  0  0  0  0  0
    1.3404    4.0644    0.0000 Cl  0  0  0  0  0  0  0  0  0
    4.1983    2.4144    0.0000 C   0  0  0  0  0  0  0  0  0
    4.1983    1.5894    0.0000 N   0  0  0  0  0  0  0  0  0
    4.8657    1.1045    0.0000 C   0  0  0  0  0  0  0  0  0
    4.6108    0.3199    0.0000 C   0  0  0  0  0  0  0  0  0
    5.0957   -0.3475    0.0000 N   0  0  0  0  0  0  0  0  0
    5.9162   -0.2613    0.0000 C   0  0  0  0  0  0  0  0  0
    6.2517    0.4924    0.0000 O   0  0  0  0  0  0  0  0  0
    6.4011   -0.9287    0.0000 C   0  0  0  0  0  0  0  0  0
    7.2216   -0.8425    0.0000 C   0  0  0  0  0  0  0  0  0
    7.7065   -1.5099    0.0000 C   0  0  0  0  0  0  0  0  0
    7.3709   -2.2636    0.0000 C   0  0  0  0  0  0  0  0  0
    6.5505   -2.3499    0.0000 C   0  0  0  0  0  0  0  0  0
    6.0655   -1.6824    0.0000 C   0  0  0  0  0  0  0  0  0
    7.8559   -2.9311    0.0000 C   0  0  0  0  0  0  0  0  0
    8.6809   -2.9311    0.0000 S   0  0  0  0  0  0  0  0  0
    8.9358   -3.7157    0.0000 C   0  0  0  0  0  0  0  0  0
    8.2684   -4.2006    0.0000 C   0  0  0  0  0  0  0  0  0
    7.6009   -3.7157    0.0000 C   0  0  0  0  0  0  0  0  0
    3.7858    0.3199    0.0000 C   0  0  0  0  0  0  0  0  0
    3.5308    1.1045    0.0000 C   0  0  0  0  0  0  0  0  0
  1  2  1  0  0  0  0
  2  3  4  0  0  0  0
  2  7  4  0  0  0  0
  3  4  4  0  0  0  0
  4  5  4  0  0  0  0
  4  9  1  0  0  0  0
  5  6  4  0  0  0  0
  6  7  4  0  0  0  0
  7  8  1  0  0  0  0
  9 10  1  0  0  0  0
 10 11  1  0  0  0  0
 10 28  1  0  0  0  0
 11 12  1  0  0  0  0
 12 13  1  0  0  0  0
 12 27  1  0  0  0  0
 13 14  1  0  0  0  0
 14 15  2  0  0  0  0
 14 16  1  0  0  0  0
 16 17  4  0  0  0  0
 16 21  4  0  0  0  0
 17 18  4  0  0  0  0
 18 19  4  0  0  0  0
 19 20  4  0  0  0  0
 19 22  1  0  0  0  0
 20 21  4  0  0  0  0
 22 23  4  0  0  0  0
 22 26  4  0  0  0  0
 23 24  4  0  0  0  0
 24 25  4  0  0  0  0
 25 26  4  0  0  0  0
 27 28  1  0  0  0  0
M  END
>  <Name_Molregno>
333175

>  <5-HT2A>
7.66

>  <DOPAMINE D2>
4.54

>  <DOPAMINE D4>
7.82

$$$$
333184
  Marvin  02231216192D 0   1.00000     0.00000     0

 28 31  0  0  1  0  0  0  0  0999 V2000
    4.0893   -4.6075    0.0000 S   0  0  0  0  0  0  0  0  0
    3.8344   -5.3922    0.0000 C   0  0  0  0  0  0  0  0  0
    3.0094   -5.3922    0.0000 C   0  0  0  0  0  0  0  0  0
    2.7544   -4.6075    0.0000 C   0  0  0  0  0  0  0  0  0
    3.4219   -4.1226    0.0000 C   0  0  0  0  0  0  0  0  0
    3.4219   -3.2976    0.0000 C   0  0  0  0  0  0  0  0  0
    2.7074   -2.8851    0.0000 C   0  0  0  0  0  0  0  0  0
    2.7074   -2.0601    0.0000 C   0  0  0  0  0  0  0  0  0
    3.4219   -1.6476    0.0000 C   0  0  0  0  0  0  0  0  0
    4.1363   -2.0601    0.0000 C   0  0  0  0  0  0  0  0  0
    4.1363   -2.8851    0.0000 C   0  0  0  0  0  0  0  0  0
    3.4219   -0.8226    0.0000 C   0  0  0  0  0  0  0  0  0
    2.7074   -0.4101    0.0000 O   0  0  0  0  0  0  0  0  0
    4.1363   -0.4101    0.0000 N   0  0  0  0  0  0  0  0  0
    4.1363    0.4149    0.0000 C   0  0  0  0  0  0  0  0  0
    3.4689    0.8998    0.0000 C   0  0  0  0  0  0  0  0  0
    3.7238    1.6844    0.0000 C   0  0  0  0  0  0  0  0  0
    4.5488    1.6844    0.0000 N   0  0  0  0  0  0  0  0  0
    4.8038    0.8998    0.0000 C   0  0  0  0  0  0  0  0  0
    5.0338    2.3519    0.0000 C   0  0  0  0  0  0  0  0  0
    5.8542    2.2656    0.0000 C   0  0  0  0  0  0  0  0  0
    6.3392    2.9331    0.0000 C   0  0  0  0  0  0  0  0  0
    7.1596    2.8468    0.0000 C   0  0  0  0  0  0  0  0  0
    7.6446    3.5143    0.0000 F   0  0  0  0  0  0  0  0  0
    7.4952    2.0932    0.0000 C   0  0  0  0  0  0  0  0  0
    8.3157    2.0069    0.0000 F   0  0  0  0  0  0  0  0  0
    7.0103    1.4257    0.0000 C   0  0  0  0  0  0  0  0  0
    6.1898    1.5120    0.0000 C   0  0  0  0  0  0  0  0  0
  1  2  4  0  0  0  0
  1  5  4  0  0  0  0
  2  3  4  0  0  0  0
  3  4  4  0  0  0  0
  4  5  4  0  0  0  0
  5  6  1  0  0  0  0
  6  7  4  0  0  0  0
  6 11  4  0  0  0  0
  7  8  4  0  0  0  0
  8  9  4  0  0  0  0
  9 10  4  0  0  0  0
  9 12  1  0  0  0  0
 10 11  4  0  0  0  0
 12 13  2  0  0  0  0
 12 14  1  0  0  0  0
 14 15  1  0  0  0  0
 15 16  1  0  0  0  0
 15 19  1  0  0  0  0
 16 17  1  0  0  0  0
 17 18  1  0  0  0  0
 18 19  1  0  0  0  0
 18 20  1  0  0  0  0
 20 21  1  0  0  0  0
 21 22  4  0  0  0  0
 21 28  4  0  0  0  0
 22 23  4  0  0  0  0
 23 24  1  0  0  0  0
 23 25  4  0  0  0  0
 25 26  1  0  0  0  0
 25 27  4  0  0  0  0
 27 28  4  0  0  0  0
M  END
>  <Name_Molregno>
333184

>  <5-HT2A>
7.8

>  <DOPAMINE D2>
4.74

>  <DOPAMINE D4>
7.85

$$$$
333204
  Marvin  02231216192D 0   1.00000     0.00000     0

 28 31  0  0  1  0  0  0  0  0999 V2000
    4.1615   -4.6348    0.0000 S   0  0  0  0  0  0  0  0  0
    3.9065   -5.4194    0.0000 C   0  0  0  0  0  0  0  0  0
    3.0815   -5.4194    0.0000 C   0  0  0  0  0  0  0  0  0
    2.8266   -4.6348    0.0000 C   0  0  0  0  0  0  0  0  0
    3.4940   -4.1499    0.0000 C   0  0  0  0  0  0  0  0  0
    3.4940   -3.3249    0.0000 C   0  0  0  0  0  0  0  0  0
    2.7796   -2.9124    0.0000 C   0  0  0  0  0  0  0  0  0
    2.7796   -2.0874    0.0000 C   0  0  0  0  0  0  0  0  0
    3.4940   -1.6749    0.0000 C   0  0  0  0  0  0  0  0  0
    4.2085   -2.0874    0.0000 C   0  0  0  0  0  0  0  0  0
    4.2085   -2.9124    0.0000 C   0  0  0  0  0  0  0  0  0
    3.4940   -0.8499    0.0000 C   0  0  0  0  0  0  0  0  0
    2.7796   -0.4374    0.0000 O   0  0  0  0  0  0  0  0  0
    4.2085   -0.4374    0.0000 N   0  0  0  0  0  0  0  0  0
    4.2085    0.3876    0.0000 C   0  0  0  0  0  0  0  0  0
    3.5411    0.8726    0.0000 C   0  0  0  0  0  0  0  0  0
    3.7960    1.6572    0.0000 C   0  0  0  0  0  0  0  0  0
    4.6210    1.6572    0.0000 N   0  0  0  0  0  0  0  0  0
    4.8759    0.8726    0.0000 C   0  0  0  0  0  0  0  0  0
    5.1059    2.3246    0.0000 C   0  0  0  0  0  0  0  0  0
    5.9264    2.2384    0.0000 C   0  0  0  0  0  0  0  0  0
    6.4113    2.9058    0.0000 C   0  0  0  0  0  0  0  0  0
    7.2318    2.8196    0.0000 C   0  0  0  0  0  0  0  0  0
    7.7167    3.4870    0.0000 O   0  0  0  0  0  0  0  0  0
    7.3812    4.2407    0.0000 C   0  0  0  0  0  0  0  0  0
    7.5674    2.0659    0.0000 C   0  0  0  0  0  0  0  0  0
    7.0824    1.3985    0.0000 C   0  0  0  0  0  0  0  0  0
    6.2620    1.4847    0.0000 C   0  0  0  0  0  0  0  0  0
  1  2  4  0  0  0  0
  1  5  4  0  0  0  0
  2  3  4  0  0  0  0
  3  4  4  0  0  0  0
  4  5  4  0  0  0  0
  5  6  1  0  0  0  0
  6  7  4  0  0  0  0
  6 11  4  0  0  0  0
  7  8  4  0  0  0  0
  8  9  4  0  0  0  0
  9 10  4  0  0  0  0
  9 12  1  0  0  0  0
 10 11  4  0  0  0  0
 12 13  2  0  0  0  0
 12 14  1  0  0  0  0
 14 15  1  0  0  0  0
 15 16  1  0  0  0  0
 15 19  1  0  0  0  0
 16 17  1  0  0  0  0
 17 18  1  0  0  0  0
 18 19  1  0  0  0  0
 18 20  1  0  0  0  0
 20 21  1  0  0  0  0
 21 22  4  0  0  0  0
 21 28  4  0  0  0  0
 22 23  4  0  0  0  0
 23 24  1  0  0  0  0
 23 26  4  0  0  0  0
 24 25  1  0  0  0  0
 26 27  4  0  0  0  0
 27 28  4  0  0  0  0
M  END
>  <Name_Molregno>
333204

>  <5-HT2A>
7.66

>  <DOPAMINE D2>
5.35

>  <DOPAMINE D4>
7.85

$$$$
333209
  Marvin  02231216192D 0   1.00000     0.00000     0

 27 30  0  0  1  0  0  0  0  0999 V2000
    1.0338    3.5978    0.0000 Cl  0  0  0  0  0  0  0  0  0
    1.7483    3.1853    0.0000 C   0  0  0  0  0  0  0  0  0
    2.4628    3.5978    0.0000 C   0  0  0  0  0  0  0  0  0
    3.1772    3.1853    0.0000 C   0  0  0  0  0  0  0  0  0
    3.1772    2.3603    0.0000 C   0  0  0  0  0  0  0  0  0
    2.4628    1.9478    0.0000 C   0  0  0  0  0  0  0  0  0
    1.7483    2.3603    0.0000 C   0  0  0  0  0  0  0  0  0
    3.8917    1.9478    0.0000 C   0  0  0  0  0  0  0  0  0
    3.8917    1.1228    0.0000 N   0  0  0  0  0  0  0  0  0
    4.5592    0.6378    0.0000 C   0  0  0  0  0  0  0  0  0
    4.3042   -0.1468    0.0000 C   0  0  0  0  0  0  0  0  0
    4.7891   -0.8142    0.0000 N   0  0  0  0  0  0  0  0  0
    5.6096   -0.7280    0.0000 C   0  0  0  0  0  0  0  0  0
    5.9452    0.0257    0.0000 O   0  0  0  0  0  0  0  0  0
    6.0945   -1.3954    0.0000 C   0  0  0  0  0  0  0  0  0
    6.9150   -1.3092    0.0000 C   0  0  0  0  0  0  0  0  0
    7.3999   -1.9766    0.0000 C   0  0  0  0  0  0  0  0  0
    7.0644   -2.7303    0.0000 C   0  0  0  0  0  0  0  0  0
    6.2439   -2.8165    0.0000 C   0  0  0  0  0  0  0  0  0
    5.7590   -2.1491    0.0000 C   0  0  0  0  0  0  0  0  0
    8.2204   -1.8904    0.0000 C   0  0  0  0  0  0  0  0  0
    8.6329   -1.1759    0.0000 S   0  0  0  0  0  0  0  0  0
    9.4399   -1.3474    0.0000 C   0  0  0  0  0  0  0  0  0
    9.5261   -2.1679    0.0000 C   0  0  0  0  0  0  0  0  0
    8.7725   -2.5035    0.0000 C   0  0  0  0  0  0  0  0  0
    3.4792   -0.1468    0.0000 C   0  0  0  0  0  0  0  0  0
    3.2243    0.6378    0.0000 C   0  0  0  0  0  0  0  0  0
  1  2  1  0  0  0  0
  2  3  4  0  0  0  0
  2  7  4  0  0  0  0
  3  4  4  0  0  0  0
  4  5  4  0  0  0  0
  5  6  4  0  0  0  0
  5  8  1  0  0  0  0
  6  7  4  0  0  0  0
  8  9  1  0  0  0  0
  9 10  1  0  0  0  0
  9 27  1  0  0  0  0
 10 11  1  0  0  0  0
 11 12  1  0  0  0  0
 11 26  1  0  0  0  0
 12 13  1  0  0  0  0
 13 14  2  0  0  0  0
 13 15  1  0  0  0  0
 15 16  4  0  0  0  0
 15 20  4  0  0  0  0
 16 17  4  0  0  0  0
 17 18  4  0  0  0  0
 17 21  1  0  0  0  0
 18 19  4  0  0  0  0
 19 20  4  0  0  0  0
 21 22  4  0  0  0  0
 21 25  4  0  0  0  0
 22 23  4  0  0  0  0
 23 24  4  0  0  0  0
 24 25  4  0  0  0  0
 26 27  1  0  0  0  0
M  END
>  <Name_Molregno>
333209

>  <5-HT2A>
5.96

>  <DOPAMINE D2>
6.64

>  <DOPAMINE D4>
7.8

$$$$
333241
  Marvin  02231216192D 0   1.00000     0.00000     0

 30 33  0  0  1  0  0  0  0  0999 V2000
    4.0278   -4.8794    0.0000 S   0  0  0  0  0  0  0  0  0
    3.7729   -5.6640    0.0000 C   0  0  0  0  0  0  0  0  0
    2.9479   -5.6640    0.0000 C   0  0  0  0  0  0  0  0  0
    2.6929   -4.8794    0.0000 C   0  0  0  0  0  0  0  0  0
    3.3604   -4.3945    0.0000 C   0  0  0  0  0  0  0  0  0
    3.3604   -3.5695    0.0000 C   0  0  0  0  0  0  0  0  0
    2.6459   -3.1570    0.0000 C   0  0  0  0  0  0  0  0  0
    2.6459   -2.3320    0.0000 C   0  0  0  0  0  0  0  0  0
    3.3604   -1.9195    0.0000 C   0  0  0  0  0  0  0  0  0
    4.0749   -2.3320    0.0000 C   0  0  0  0  0  0  0  0  0
    4.0749   -3.1570    0.0000 C   0  0  0  0  0  0  0  0  0
    3.3604   -1.0945    0.0000 C   0  0  0  0  0  0  0  0  0
    2.6459   -0.6820    0.0000 O   0  0  0  0  0  0  0  0  0
    4.0749   -0.6820    0.0000 N   0  0  0  0  0  0  0  0  0
    4.0749    0.1430    0.0000 C   0  0  0  0  0  0  0  0  0
    3.4074    0.6279    0.0000 C   0  0  0  0  0  0  0  0  0
    3.6624    1.4126    0.0000 C   0  0  0  0  0  0  0  0  0
    4.4874    1.4126    0.0000 N   0  0  0  0  0  0  0  0  0
    4.7423    0.6279    0.0000 C   0  0  0  0  0  0  0  0  0
    4.9723    2.0800    0.0000 C   0  0  0  0  0  0  0  0  0
    5.7928    1.9938    0.0000 C   0  0  0  0  0  0  0  0  0
    6.2777    2.6612    0.0000 C   0  0  0  0  0  0  0  0  0
    7.0982    2.5750    0.0000 C   0  0  0  0  0  0  0  0  0
    7.4337    1.8213    0.0000 C   0  0  0  0  0  0  0  0  0
    6.9488    1.1539    0.0000 C   0  0  0  0  0  0  0  0  0
    6.1283    1.2401    0.0000 C   0  0  0  0  0  0  0  0  0
    8.2542    1.7351    0.0000 C   0  0  0  0  0  0  0  0  0
    9.0747    1.6488    0.0000 F   0  0  0  0  0  0  0  0  0
    8.1680    0.9146    0.0000 F   0  0  0  0  0  0  0  0  0
    8.3404    2.5555    0.0000 F   0  0  0  0  0  0  0  0  0
  1  2  4  0  0  0  0
  1  5  4  0  0  0  0
  2  3  4  0  0  0  0
  3  4  4  0  0  0  0
  4  5  4  0  0  0  0
  5  6  1  0  0  0  0
  6  7  4  0  0  0  0
  6 11  4  0  0  0  0
  7  8  4  0  0  0  0
  8  9  4  0  0  0  0
  9 10  4  0  0  0  0
  9 12  1  0  0  0  0
 10 11  4  0  0  0  0
 12 13  2  0  0  0  0
 12 14  1  0  0  0  0
 14 15  1  0  0  0  0
 15 16  1  0  0  0  0
 15 19  1  0  0  0  0
 16 17  1  0  0  0  0
 17 18  1  0  0  0  0
 18 19  1  0  0  0  0
 18 20  1  0  0  0  0
 20 21  1  0  0  0  0
 21 22  4  0  0  0  0
 21 26  4  0  0  0  0
 22 23  4  0  0  0  0
 23 24  4  0  0  0  0
 24 25  4  0  0  0  0
 24 27  1  0  0  0  0
 25 26  4  0  0  0  0
 27 28  1  0  0  0  0
 27 29  1  0  0  0  0
 27 30  1  0  0  0  0
M  END
>  <Name_Molregno>
333241

>  <5-HT2A>
6.89

>  <DOPAMINE D4>
7.85

$$$$
333242
  Marvin  02231216192D 0   1.00000     0.00000     0

 30 33  0  0  1  0  0  0  0  0999 V2000
    6.9000   -4.7139    0.0000 S   0  0  0  0  0  0  0  0  0
    6.6451   -5.4986    0.0000 C   0  0  0  0  0  0  0  0  0
    5.8201   -5.4986    0.0000 C   0  0  0  0  0  0  0  0  0
    5.5652   -4.7139    0.0000 C   0  0  0  0  0  0  0  0  0
    6.2326   -4.2290    0.0000 C   0  0  0  0  0  0  0  0  0
    6.2326   -3.4040    0.0000 C   0  0  0  0  0  0  0  0  0
    5.5181   -2.9915    0.0000 C   0  0  0  0  0  0  0  0  0
    5.5181   -2.1665    0.0000 C   0  0  0  0  0  0  0  0  0
    6.2326   -1.7540    0.0000 C   0  0  0  0  0  0  0  0  0
    6.9471   -2.1665    0.0000 C   0  0  0  0  0  0  0  0  0
    6.9471   -2.9915    0.0000 C   0  0  0  0  0  0  0  0  0
    4.8037   -1.7540    0.0000 C   0  0  0  0  0  0  0  0  0
    4.0892   -2.1665    0.0000 O   0  0  0  0  0  0  0  0  0
    4.8037   -0.9290    0.0000 N   0  0  0  0  0  0  0  0  0
    4.0892   -0.5165    0.0000 C   0  0  0  0  0  0  0  0  0
    3.3355   -0.8521    0.0000 C   0  0  0  0  0  0  0  0  0
    2.7835   -0.2390    0.0000 C   0  0  0  0  0  0  0  0  0
    3.1960    0.4755    0.0000 N   0  0  0  0  0  0  0  0  0
    4.0030    0.3040    0.0000 C   0  0  0  0  0  0  0  0  0
    2.8604    1.2292    0.0000 C   0  0  0  0  0  0  0  0  0
    3.3454    1.8966    0.0000 C   0  0  0  0  0  0  0  0  0
    3.0098    2.6503    0.0000 C   0  0  0  0  0  0  0  0  0
    3.4947    3.3177    0.0000 C   0  0  0  0  0  0  0  0  0
    4.3152    3.2315    0.0000 C   0  0  0  0  0  0  0  0  0
    4.6508    2.4778    0.0000 C   0  0  0  0  0  0  0  0  0
    4.1658    1.8104    0.0000 C   0  0  0  0  0  0  0  0  0
    4.8001    3.8989    0.0000 C   0  0  0  0  0  0  0  0  0
    5.2850    4.5664    0.0000 F   0  0  0  0  0  0  0  0  0
    5.4676    3.4140    0.0000 F   0  0  0  0  0  0  0  0  0
    4.1327    4.3839    0.0000 F   0  0  0  0  0  0  0  0  0
  1  2  4  0  0  0  0
  1  5  4  0  0  0  0
  2  3  4  0  0  0  0
  3  4  4  0  0  0  0
  4  5  4  0  0  0  0
  5  6  1  0  0  0  0
  6  7  4  0  0  0  0
  6 11  4  0  0  0  0
  7  8  4  0  0  0  0
  8  9  4  0  0  0  0
  8 12  1  0  0  0  0
  9 10  4  0  0  0  0
 10 11  4  0  0  0  0
 12 13  2  0  0  0  0
 12 14  1  0  0  0  0
 14 15  1  0  0  0  0
 15 16  1  0  0  0  0
 15 19  1  0  0  0  0
 16 17  1  0  0  0  0
 17 18  1  0  0  0  0
 18 19  1  0  0  0  0
 18 20  1  0  0  0  0
 20 21  1  0  0  0  0
 21 22  4  0  0  0  0
 21 26  4  0  0  0  0
 22 23  4  0  0  0  0
 23 24  4  0  0  0  0
 24 25  4  0  0  0  0
 24 27  1  0  0  0  0
 25 26  4  0  0  0  0
 27 28  1  0  0  0  0
 27 29  1  0  0  0  0
 27 30  1  0  0  0  0
M  END
>  <Name_Molregno>
333242

>  <5-HT2A>
6.13

>  <DOPAMINE D2>
5.89

>  <DOPAMINE D4>
7.68

$$$$
333247
  Marvin  02231216192D 0   1.00000     0.00000     0

 27 30  0  0  1  0  0  0  0  0999 V2000
    6.4109   -3.5260    0.0000 S   0  0  0  0  0  0  0  0  0
    6.1560   -4.3106    0.0000 C   0  0  0  0  0  0  0  0  0
    5.3310   -4.3106    0.0000 C   0  0  0  0  0  0  0  0  0
    5.0760   -3.5260    0.0000 C   0  0  0  0  0  0  0  0  0
    5.7435   -3.0411    0.0000 C   0  0  0  0  0  0  0  0  0
    5.7435   -2.2161    0.0000 C   0  0  0  0  0  0  0  0  0
    5.0290   -1.8036    0.0000 C   0  0  0  0  0  0  0  0  0
    5.0290   -0.9786    0.0000 C   0  0  0  0  0  0  0  0  0
    5.7435   -0.5661    0.0000 C   0  0  0  0  0  0  0  0  0
    6.4579   -0.9786    0.0000 C   0  0  0  0  0  0  0  0  0
    6.4579   -1.8036    0.0000 C   0  0  0  0  0  0  0  0  0
    4.3145   -0.5661    0.0000 C   0  0  0  0  0  0  0  0  0
    3.6000   -0.9786    0.0000 O   0  0  0  0  0  0  0  0  0
    4.3145    0.2589    0.0000 N   0  0  0  0  0  0  0  0  0
    3.6000    0.6714    0.0000 C   0  0  0  0  0  0  0  0  0
    2.8464    0.3359    0.0000 C   0  0  0  0  0  0  0  0  0
    2.2943    0.9490    0.0000 C   0  0  0  0  0  0  0  0  0
    2.7068    1.6635    0.0000 N   0  0  0  0  0  0  0  0  0
    3.5138    1.4919    0.0000 C   0  0  0  0  0  0  0  0  0
    2.3713    2.4171    0.0000 C   0  0  0  0  0  0  0  0  0
    2.8562    3.0846    0.0000 C   0  0  0  0  0  0  0  0  0
    2.5206    3.8382    0.0000 C   0  0  0  0  0  0  0  0  0
    3.0056    4.5057    0.0000 C   0  0  0  0  0  0  0  0  0
    3.8260    4.4194    0.0000 C   0  0  0  0  0  0  0  0  0
    4.1616    3.6658    0.0000 C   0  0  0  0  0  0  0  0  0
    3.6767    2.9983    0.0000 C   0  0  0  0  0  0  0  0  0
    4.3110    5.0869    0.0000 C   0  0  0  0  0  0  0  0  0
  1  2  4  0  0  0  0
  1  5  4  0  0  0  0
  2  3  4  0  0  0  0
  3  4  4  0  0  0  0
  4  5  4  0  0  0  0
  5  6  1  0  0  0  0
  6  7  4  0  0  0  0
  6 11  4  0  0  0  0
  7  8  4  0  0  0  0
  8  9  4  0  0  0  0
  8 12  1  0  0  0  0
  9 10  4  0  0  0  0
 10 11  4  0  0  0  0
 12 13  2  0  0  0  0
 12 14  1  0  0  0  0
 14 15  1  0  0  0  0
 15 16  1  0  0  0  0
 15 19  1  0  0  0  0
 16 17  1  0  0  0  0
 17 18  1  0  0  0  0
 18 19  1  0  0  0  0
 18 20  1  0  0  0  0
 20 21  1  0  0  0  0
 21 22  4  0  0  0  0
 21 26  4  0  0  0  0
 22 23  4  0  0  0  0
 23 24  4  0  0  0  0
 24 25  4  0  0  0  0
 24 27  1  0  0  0  0
 25 26  4  0  0  0  0
M  END
>  <Name_Molregno>
333247

>  <5-HT2A>
6.21

>  <DOPAMINE D2>
7.22

>  <DOPAMINE D4>
8.4

$$$$
333324
  Marvin  02231216192D 0   1.00000     0.00000     0

 31 34  0  0  1  0  0  0  0  0999 V2000
    4.2429   -4.8097    0.0000 S   0  0  0  0  0  0  0  0  0
    3.9880   -5.5943    0.0000 C   0  0  0  0  0  0  0  0  0
    3.1630   -5.5943    0.0000 C   0  0  0  0  0  0  0  0  0
    2.9080   -4.8097    0.0000 C   0  0  0  0  0  0  0  0  0
    3.5755   -4.3247    0.0000 C   0  0  0  0  0  0  0  0  0
    3.5755   -3.4997    0.0000 C   0  0  0  0  0  0  0  0  0
    2.8610   -3.0872    0.0000 C   0  0  0  0  0  0  0  0  0
    2.8610   -2.2622    0.0000 C   0  0  0  0  0  0  0  0  0
    3.5755   -1.8497    0.0000 C   0  0  0  0  0  0  0  0  0
    4.2900   -2.2622    0.0000 C   0  0  0  0  0  0  0  0  0
    4.2900   -3.0872    0.0000 C   0  0  0  0  0  0  0  0  0
    3.5755   -1.0247    0.0000 C   0  0  0  0  0  0  0  0  0
    2.8610   -0.6122    0.0000 O   0  0  0  0  0  0  0  0  0
    4.2900   -0.6122    0.0000 N   0  0  0  0  0  0  0  0  0
    4.2900    0.2128    0.0000 C   0  0  0  0  0  0  0  0  0
    3.6225    0.6977    0.0000 C   0  0  0  0  0  0  0  0  0
    3.8775    1.4823    0.0000 C   0  0  0  0  0  0  0  0  0
    4.7025    1.4823    0.0000 N   0  0  0  0  0  0  0  0  0
    4.9574    0.6977    0.0000 C   0  0  0  0  0  0  0  0  0
    5.1874    2.1497    0.0000 C   0  0  0  0  0  0  0  0  0
    6.0079    2.0635    0.0000 C   0  0  0  0  0  0  0  0  0
    6.4928    2.7309    0.0000 C   0  0  0  0  0  0  0  0  0
    7.3133    2.6447    0.0000 C   0  0  0  0  0  0  0  0  0
    7.6488    1.8910    0.0000 C   0  0  0  0  0  0  0  0  0
    8.4693    1.8048    0.0000 O   0  0  0  0  0  0  0  0  0
    8.9542    2.4722    0.0000 C   0  0  0  0  0  0  0  0  0
    9.4391    3.1397    0.0000 F   0  0  0  0  0  0  0  0  0
    9.6217    1.9873    0.0000 F   0  0  0  0  0  0  0  0  0
    8.2868    2.9572    0.0000 F   0  0  0  0  0  0  0  0  0
    7.1639    1.2236    0.0000 C   0  0  0  0  0  0  0  0  0
    6.3434    1.3098    0.0000 C   0  0  0  0  0  0  0  0  0
  1  2  4  0  0  0  0
  1  5  4  0  0  0  0
  2  3  4  0  0  0  0
  3  4  4  0  0  0  0
  4  5  4  0  0  0  0
  5  6  1  0  0  0  0
  6  7  4  0  0  0  0
  6 11  4  0  0  0  0
  7  8  4  0  0  0  0
  8  9  4  0  0  0  0
  9 10  4  0  0  0  0
  9 12  1  0  0  0  0
 10 11  4  0  0  0  0
 12 13  2  0  0  0  0
 12 14  1  0  0  0  0
 14 15  1  0  0  0  0
 15 16  1  0  0  0  0
 15 19  1  0  0  0  0
 16 17  1  0  0  0  0
 17 18  1  0  0  0  0
 18 19  1  0  0  0  0
 18 20  1  0  0  0  0
 20 21  1  0  0  0  0
 21 22  4  0  0  0  0
 21 31  4  0  0  0  0
 22 23  4  0  0  0  0
 23 24  4  0  0  0  0
 24 25  1  0  0  0  0
 24 30  4  0  0  0  0
 25 26  1  0  0  0  0
 26 27  1  0  0  0  0
 26 28  1  0  0  0  0
 26 29  1  0  0  0  0
 30 31  4  0  0  0  0
M  END
>  <Name_Molregno>
333324

>  <5-HT2A>
6.85

>  <DOPAMINE D4>
7.11

$$$$
333436
  Marvin  02231216192D 0   1.00000     0.00000     0

 33 38  0  0  0  0  0  0  0  0999 V2000
   -3.7150   -5.1498    0.0000 S   0  0  0  0  0  0  0  0  0
   -2.8945   -5.2360    0.0000 C   0  0  0  0  0  0  0  0  0
   -2.5589   -4.4823    0.0000 C   0  0  0  0  0  0  0  0  0
   -3.1720   -3.9303    0.0000 C   0  0  0  0  0  0  0  0  0
   -3.8865   -4.3428    0.0000 C   0  0  0  0  0  0  0  0  0
   -4.6010   -3.9303    0.0000 N   0  0  0  0  0  0  0  0  0
   -4.6010   -3.1053    0.0000 C   0  0  0  0  0  0  0  0  0
   -3.8865   -2.6928    0.0000 N   0  0  0  0  0  0  0  0  0
   -3.8865   -1.8678    0.0000 C   0  0  0  0  0  0  0  0  0
   -4.6010   -1.4553    0.0000 C   0  0  0  0  0  0  0  0  0
   -4.6010   -0.6303    0.0000 N   0  0  0  0  0  0  0  0  0
   -5.3154   -0.2178    0.0000 C   0  0  0  0  0  0  0  0  0
   -5.3154    0.6072    0.0000 C   0  0  0  0  0  0  0  0  0
   -4.6010    1.0197    0.0000 N   0  0  0  0  0  0  0  0  0
   -3.8865    0.6072    0.0000 C   0  0  0  0  0  0  0  0  0
   -3.8865   -0.2178    0.0000 C   0  0  0  0  0  0  0  0  0
   -4.6010    1.8447    0.0000 C   0  0  0  0  0  0  0  0  0
   -3.8865    2.2572    0.0000 C   0  0  0  0  0  0  0  0  0
   -3.8865    3.0822    0.0000 C   0  0  0  0  0  0  0  0  0
   -4.6010    3.4947    0.0000 N   0  0  0  0  0  0  0  0  0
   -5.3154    3.0822    0.0000 C   0  0  0  0  0  0  0  0  0
   -5.3154    2.2572    0.0000 C   0  0  0  0  0  0  0  0  0
   -3.1720    3.4947    0.0000 C   0  0  0  0  0  0  0  0  0
   -2.4576    3.0822    0.0000 C   0  0  0  0  0  0  0  0  0
   -2.4576    2.2572    0.0000 C   0  0  0  0  0  0  0  0  0
   -3.1720    1.8447    0.0000 C   0  0  0  0  0  0  0  0  0
   -3.1720   -3.1053    0.0000 C   0  0  0  0  0  0  0  0  0
   -2.4576   -2.6928    0.0000 O   0  0  0  0  0  0  0  0  0
   -1.7385   -4.3961    0.0000 C   0  0  0  0  0  0  0  0  0
   -1.2535   -5.0635    0.0000 C   0  0  0  0  0  0  0  0  0
   -1.5891   -5.8172    0.0000 N   0  0  0  0  0  0  0  0  0
   -2.4096   -5.9034    0.0000 C   0  0  0  0  0  0  0  0  0
   -1.1042   -6.4846    0.0000 C   0  0  0  0  0  0  0  0  0
  1  2  4  0  0  0  0
  1  5  4  0  0  0  0
  2  3  4  0  0  0  0
  2 32  1  0  0  0  0
  3  4  4  0  0  0  0
  3 29  1  0  0  0  0
  4  5  4  0  0  0  0
  4 27  1  0  0  0  0
  5  6  1  0  0  0  0
  6  7  2  0  0  0  0
  7  8  1  0  0  0  0
  8  9  1  0  0  0  0
  8 27  1  0  0  0  0
  9 10  1  0  0  0  0
 10 11  1  0  0  0  0
 11 12  1  0  0  0  0
 11 16  1  0  0  0  0
 12 13  1  0  0  0  0
 13 14  1  0  0  0  0
 14 15  1  0  0  0  0
 14 17  1  0  0  0  0
 15 16  1  0  0  0  0
 17 18  4  0  0  0  0
 17 22  4  0  0  0  0
 18 19  4  0  0  0  0
 18 26  4  0  0  0  0
 19 20  4  0  0  0  0
 19 23  4  0  0  0  0
 20 21  4  0  0  0  0
 21 22  4  0  0  0  0
 23 24  4  0  0  0  0
 24 25  4  0  0  0  0
 25 26  4  0  0  0  0
 27 28  2  0  0  0  0
 29 30  1  0  0  0  0
 30 31  1  0  0  0  0
 31 32  1  0  0  0  0
 31 33  1  0  0  0  0
M  STY  1   1 DAT
M  SAL   1  1  20
M  SDT   1 MRV_IMPLICIT_H                                        
M  SDD   1     0.0000    0.0000    DR    ALL  0       0  
M  SED   1 IMPL_H1
M  END
>  <Name_Molregno>
333436

>  <5-HT1A>
8.19

>  <5-HT1B>
8.01

>  <5-HT2A>
8.92

>  <5-HT2C>
8.26

>  <5-HT5>
9

>  <DOPAMINE D3>
8.89

$$$$
333574
  Marvin  02231216192D 0   1.00000     0.00000     0

 33 38  0  0  0  0  0  0  0  0999 V2000
   -3.7150   -5.1498    0.0000 S   0  0  0  0  0  0  0  0  0
   -2.8945   -5.2360    0.0000 C   0  0  0  0  0  0  0  0  0
   -2.5589   -4.4823    0.0000 C   0  0  0  0  0  0  0  0  0
   -3.1720   -3.9303    0.0000 C   0  0  0  0  0  0  0  0  0
   -3.8865   -4.3428    0.0000 C   0  0  0  0  0  0  0  0  0
   -4.6010   -3.9303    0.0000 N   0  0  0  0  0  0  0  0  0
   -4.6010   -3.1053    0.0000 C   0  0  0  0  0  0  0  0  0
   -3.8865   -2.6928    0.0000 N   0  0  0  0  0  0  0  0  0
   -3.8865   -1.8678    0.0000 C   0  0  0  0  0  0  0  0  0
   -4.6010   -1.4553    0.0000 C   0  0  0  0  0  0  0  0  0
   -4.6010   -0.6303    0.0000 N   0  0  0  0  0  0  0  0  0
   -5.3154   -0.2178    0.0000 C   0  0  0  0  0  0  0  0  0
   -5.3154    0.6072    0.0000 C   0  0  0  0  0  0  0  0  0
   -4.6010    1.0197    0.0000 N   0  0  0  0  0  0  0  0  0
   -3.8865    0.6072    0.0000 C   0  0  0  0  0  0  0  0  0
   -3.8865   -0.2178    0.0000 C   0  0  0  0  0  0  0  0  0
   -4.6010    1.8447    0.0000 C   0  0  0  0  0  0  0  0  0
   -3.8865    2.2572    0.0000 C   0  0  0  0  0  0  0  0  0
   -3.8865    3.0822    0.0000 C   0  0  0  0  0  0  0  0  0
   -3.1720    3.4947    0.0000 C   0  0  0  0  0  0  0  0  0
   -2.4576    3.0822    0.0000 C   0  0  0  0  0  0  0  0  0
   -2.4576    2.2572    0.0000 C   0  0  0  0  0  0  0  0  0
   -3.1720    1.8447    0.0000 C   0  0  0  0  0  0  0  0  0
   -4.6010    3.4947    0.0000 C   0  0  0  0  0  0  0  0  0
   -5.3154    3.0822    0.0000 N   0  0  0  0  0  0  0  0  0
   -5.3154    2.2572    0.0000 C   0  0  0  0  0  0  0  0  0
   -3.1720   -3.1053    0.0000 C   0  0  0  0  0  0  0  0  0
   -2.4576   -2.6928    0.0000 O   0  0  0  0  0  0  0  0  0
   -1.7385   -4.3961    0.0000 C   0  0  0  0  0  0  0  0  0
   -1.2535   -5.0635    0.0000 C   0  0  0  0  0  0  0  0  0
   -1.5891   -5.8172    0.0000 N   0  0  0  0  0  0  0  0  0
   -2.4096   -5.9034    0.0000 C   0  0  0  0  0  0  0  0  0
   -1.1042   -6.4846    0.0000 C   0  0  0  0  0  0  0  0  0
  1  2  4  0  0  0  0
  1  5  4  0  0  0  0
  2  3  4  0  0  0  0
  2 32  1  0  0  0  0
  3  4  4  0  0  0  0
  3 29  1  0  0  0  0
  4  5  4  0  0  0  0
  4 27  1  0  0  0  0
  5  6  1  0  0  0  0
  6  7  2  0  0  0  0
  7  8  1  0  0  0  0
  8  9  1  0  0  0  0
  8 27  1  0  0  0  0
  9 10  1  0  0  0  0
 10 11  1  0  0  0  0
 11 12  1  0  0  0  0
 11 16  1  0  0  0  0
 12 13  1  0  0  0  0
 13 14  1  0  0  0  0
 14 15  1  0  0  0  0
 14 17  1  0  0  0  0
 15 16  1  0  0  0  0
 17 18  4  0  0  0  0
 17 26  4  0  0  0  0
 18 19  4  0  0  0  0
 18 23  4  0  0  0  0
 19 20  4  0  0  0  0
 19 24  4  0  0  0  0
 20 21  4  0  0  0  0
 21 22  4  0  0  0  0
 22 23  4  0  0  0  0
 24 25  4  0  0  0  0
 25 26  4  0  0  0  0
 27 28  2  0  0  0  0
 29 30  1  0  0  0  0
 30 31  1  0  0  0  0
 31 32  1  0  0  0  0
 31 33  1  0  0  0  0
M  END
>  <Name_Molregno>
333574

>  <5-HT1A>
8.33

>  <5-HT1B>
8.6

>  <5-HT2A>
6.74

>  <5-HT2C>
8

>  <5-HT5>
8

>  <DOPAMINE D3>
8.93

$$$$
335202
  Marvin  02231216192D 0   1.00000     0.00000     0

 31 34  0  0  0  0  0  0  0  0999 V2000
   -5.3316    5.4643    0.0000 O   0  0  0  0  0  0  0  0  0
   -6.0461    5.8768    0.0000 C   0  0  0  0  0  0  0  0  0
   -4.6172    5.8768    0.0000 C   0  0  0  0  0  0  0  0  0
   -3.9027    5.4643    0.0000 C   0  0  0  0  0  0  0  0  0
   -3.1882    5.8768    0.0000 C   0  0  0  0  0  0  0  0  0
   -3.1882    6.7018    0.0000 C   0  0  0  0  0  0  0  0  0
   -3.9027    7.1143    0.0000 C   0  0  0  0  0  0  0  0  0
   -4.6172    6.7018    0.0000 C   0  0  0  0  0  0  0  0  0
   -2.4737    7.1143    0.0000 C   0  0  0  0  0  0  0  0  0
   -1.7593    6.7018    0.0000 C   0  0  0  0  0  0  0  0  0
   -1.7593    5.8768    0.0000 C   0  0  0  0  0  0  0  0  0
   -2.4737    5.4643    0.0000 C   0  0  0  0  0  0  0  0  0
   -2.4737    4.6393    0.0000 N   0  0  0  0  0  0  0  0  0
   -1.7593    4.2268    0.0000 C   0  0  0  0  0  0  0  0  0
   -1.7593    3.4018    0.0000 C   0  0  0  0  0  0  0  0  0
   -2.4737    2.9893    0.0000 N   0  0  0  0  0  0  0  0  0
   -3.1882    3.4018    0.0000 C   0  0  0  0  0  0  0  0  0
   -3.1882    4.2268    0.0000 C   0  0  0  0  0  0  0  0  0
   -2.4737    2.1643    0.0000 C   0  0  0  0  0  0  0  0  0
   -1.7593    1.7518    0.0000 C   0  0  0  0  0  0  0  0  0
   -1.7593    0.9268    0.0000 C   0  0  0  0  0  0  0  0  0
   -1.0448    0.5143    0.0000 C   0  0  0  0  0  0  0  0  0
   -1.0448   -0.3107    0.0000 N   0  0  0  0  0  0  0  0  0
   -0.3303   -0.7232    0.0000 N   0  0  0  0  0  0  0  0  0
   -0.3303   -1.5482    0.0000 C   0  0  0  0  0  0  0  0  0
   -1.0448   -1.9607    0.0000 C   0  0  0  0  0  0  0  0  0
   -1.0448   -2.7857    0.0000 O   0  0  0  0  0  0  0  0  0
   -1.7593   -1.5482    0.0000 N   0  0  0  0  0  0  0  0  0
   -2.4737   -1.9607    0.0000 C   0  0  0  0  0  0  0  0  0
   -1.7593   -0.7232    0.0000 C   0  0  0  0  0  0  0  0  0
   -2.4737   -0.3107    0.0000 O   0  0  0  0  0  0  0  0  0
  1  2  1  0  0  0  0
  1  3  1  0  0  0  0
  3  4  4  0  0  0  0
  3  8  4  0  0  0  0
  4  5  4  0  0  0  0
  5  6  4  0  0  0  0
  5 12  4  0  0  0  0
  6  7  4  0  0  0  0
  6  9  4  0  0  0  0
  7  8  4  0  0  0  0
  9 10  4  0  0  0  0
 10 11  4  0  0  0  0
 11 12  4  0  0  0  0
 12 13  1  0  0  0  0
 13 14  1  0  0  0  0
 13 18  1  0  0  0  0
 14 15  1  0  0  0  0
 15 16  1  0  0  0  0
 16 17  1  0  0  0  0
 16 19  1  0  0  0  0
 17 18  1  0  0  0  0
 19 20  1  0  0  0  0
 20 21  1  0  0  0  0
 21 22  1  0  0  0  0
 22 23  1  0  0  0  0
 23 24  1  0  0  0  0
 23 30  1  0  0  0  0
 24 25  2  0  0  0  0
 25 26  1  0  0  0  0
 26 27  2  0  0  0  0
 26 28  1  0  0  0  0
 28 29  1  0  0  0  0
 28 30  1  0  0  0  0
 30 31  2  0  0  0  0
M  END
>  <Name_Molregno>
335202

>  <5-HT1A>
8.87

>  <5-HT2A>
7.38

>  <5-HT2C>
7

>  <5-HT3>
5

>  <5-HT5>
6.64

>  <5-HT6>
6.92

>  <5-HT7>
8.04

>  <Alpha-2A>
5.99

>  <Alpha-2B>
6.5

>  <Alpha-2C>
7.63

>  <Beta-1>
6.32

>  <Beta-2>
7.22

>  <DOPAMINE D1>
5.13

>  <DOPAMINE D2>
7.66

>  <DOPAMINE D3>
7.2

>  <DOPAMINE D4>
8.07

>  <DOPAMINE D5>
5

>  <Dopamine transporter>
6.39

>  <HISTAMINE H1>
6.82

>  <HISTAMINE H2>
6.52

>  <HISTAMINE H3>
5

>  <HISTAMINE H4>
5

>  <Norepinephrine transporter>
5.16

>  <Serotonin transporter>
5.21

$$$$
335712
  Marvin  02231216192D 0   1.00000     0.00000     0

 15 16  0  0  1  0  0  0  0  0999 V2000
    0.4908   -1.6385    0.0000 O   0  0  0  0  0  0  0  0  0
    1.2053   -1.2260    0.0000 C   0  0  0  0  0  0  0  0  0
   -0.2236   -1.2260    0.0000 C   0  0  0  0  0  0  0  0  0
   -0.9381   -1.6385    0.0000 C   0  0  0  0  0  0  0  0  0
   -1.6526   -1.2260    0.0000 C   0  0  0  0  0  0  0  0  0
   -2.4372   -1.4809    0.0000 N   0  0  0  0  0  0  0  0  0
   -2.9221   -0.8135    0.0000 N   0  0  0  0  0  0  0  0  0
   -2.4372   -0.1460    0.0000 C   0  0  0  0  0  0  0  0  0
   -1.6526   -0.4010    0.0000 C   0  0  0  0  0  0  0  0  0
   -0.9381    0.0115    0.0000 C   0  0  0  0  0  0  0  0  0
   -0.2236   -0.4010    0.0000 C   0  0  0  0  0  0  0  0  0
   -2.6921   -2.2655    0.0000 C   0  0  0  0  0  0  0  0  0
   -3.4991   -2.4371    0.0000 C   0  0  0  0  0  0  0  0  0
   -3.7541   -3.2217    0.0000 N   0  0  0  0  0  0  0  0  0
   -4.0511   -1.8240    0.0000 C   0  0  0  0  0  0  0  0  0
  1  2  1  0  0  0  0
  1  3  1  0  0  0  0
  3  4  4  0  0  0  0
  3 11  4  0  0  0  0
  4  5  4  0  0  0  0
  5  6  4  0  0  0  0
  5  9  4  0  0  0  0
  6  7  4  0  0  0  0
  6 12  1  0  0  0  0
  7  8  4  0  0  0  0
  8  9  4  0  0  0  0
  9 10  4  0  0  0  0
 10 11  4  0  0  0  0
 12 13  1  0  0  0  0
 13 14  1  0  0  0  0
 13 15  1  0  0  0  0
M  END
>  <Name_Molregno>
335712

>  <5-HT2A>
7.62

>  <5-HT2C>
8.31

$$$$
335713
  Marvin  02231216192D 0   1.00000     0.00000     0

 15 16  0  0  1  0  0  0  0  0999 V2000
    3.8485   -1.2380    0.0000 O   0  0  0  0  0  0  0  0  0
    3.1340   -1.6505    0.0000 C   0  0  0  0  0  0  0  0  0
    3.1340   -2.4755    0.0000 C   0  0  0  0  0  0  0  0  0
    2.4196   -2.8880    0.0000 C   0  0  0  0  0  0  0  0  0
    1.7051   -2.4755    0.0000 C   0  0  0  0  0  0  0  0  0
    1.7051   -1.6505    0.0000 C   0  0  0  0  0  0  0  0  0
    0.9205   -1.3955    0.0000 N   0  0  0  0  0  0  0  0  0
    0.4355   -2.0630    0.0000 N   0  0  0  0  0  0  0  0  0
    0.9205   -2.7304    0.0000 C   0  0  0  0  0  0  0  0  0
    0.6655   -0.6109    0.0000 C   0  0  0  0  0  0  0  0  0
    1.2176    0.0022    0.0000 C   0  0  0  0  0  0  0  0  0
    0.9626    0.7868    0.0000 N   0  0  0  0  0  0  0  0  0
    2.0245   -0.1693    0.0000 C   0  0  0  0  0  0  0  0  0
    2.4196   -1.2380    0.0000 C   0  0  0  0  0  0  0  0  0
    2.4196   -0.4130    0.0000 C   0  0  0  0  0  0  0  0  0
  1  2  1  0  0  0  0
  2  3  4  0  0  0  0
  2 14  4  0  0  0  0
  3  4  4  0  0  0  0
  4  5  4  0  0  0  0
  5  6  4  0  0  0  0
  5  9  4  0  0  0  0
  6  7  4  0  0  0  0
  6 14  4  0  0  0  0
  7  8  4  0  0  0  0
  7 10  1  0  0  0  0
  8  9  4  0  0  0  0
 10 11  1  0  0  0  0
 11 12  1  0  0  0  0
 11 13  1  0  0  0  0
 14 15  1  0  0  0  0
M  END
>  <Name_Molregno>
335713

>  <5-HT2A>
8.74

>  <5-HT2C>
8.44

$$$$
335714
  Marvin  02231216192D 0   1.00000     0.00000     0

 15 16  0  0  1  0  0  0  0  0999 V2000
    0.6648   -2.3891    0.0000 F   0  0  0  0  0  0  0  0  0
    0.6648   -1.5641    0.0000 C   0  0  0  0  0  0  0  0  0
   -0.0497   -1.1516    0.0000 C   0  0  0  0  0  0  0  0  0
   -0.8343   -1.4065    0.0000 N   0  0  0  0  0  0  0  0  0
   -1.3192   -0.7391    0.0000 N   0  0  0  0  0  0  0  0  0
   -0.8343   -0.0716    0.0000 C   0  0  0  0  0  0  0  0  0
   -0.0497   -0.3266    0.0000 C   0  0  0  0  0  0  0  0  0
    0.6648    0.0859    0.0000 C   0  0  0  0  0  0  0  0  0
    1.3793   -0.3266    0.0000 C   0  0  0  0  0  0  0  0  0
    1.3793   -1.1516    0.0000 C   0  0  0  0  0  0  0  0  0
    2.0938   -1.5641    0.0000 O   0  0  0  0  0  0  0  0  0
   -1.0892   -2.1911    0.0000 C   0  0  0  0  0  0  0  0  0
   -1.8962   -2.3627    0.0000 C   0  0  0  0  0  0  0  0  0
   -2.1511   -3.1473    0.0000 N   0  0  0  0  0  0  0  0  0
   -2.4482   -1.7496    0.0000 C   0  0  0  0  0  0  0  0  0
  1  2  1  0  0  0  0
  2  3  4  0  0  0  0
  2 10  4  0  0  0  0
  3  4  4  0  0  0  0
  3  7  4  0  0  0  0
  4  5  4  0  0  0  0
  4 12  1  0  0  0  0
  5  6  4  0  0  0  0
  6  7  4  0  0  0  0
  7  8  4  0  0  0  0
  8  9  4  0  0  0  0
  9 10  4  0  0  0  0
 10 11  1  0  0  0  0
 12 13  1  0  0  0  0
 13 14  1  0  0  0  0
 13 15  1  0  0  0  0
M  END
>  <Name_Molregno>
335714

>  <5-HT2A>
8.24

>  <5-HT2C>
9

$$$$
335729
  Marvin  02231216192D 0   1.00000     0.00000     0

 13 14  0  0  0  0  0  0  0  0999 V2000
    0.1644   -1.0899    0.0000 O   0  0  0  0  0  0  0  0  0
   -0.5501   -0.6774    0.0000 C   0  0  0  0  0  0  0  0  0
   -1.2645   -1.0899    0.0000 C   0  0  0  0  0  0  0  0  0
   -1.9790   -0.6774    0.0000 C   0  0  0  0  0  0  0  0  0
   -2.7636   -0.9323    0.0000 N   0  0  0  0  0  0  0  0  0
   -3.2486   -0.2649    0.0000 N   0  0  0  0  0  0  0  0  0
   -2.7636    0.4026    0.0000 C   0  0  0  0  0  0  0  0  0
   -1.9790    0.1476    0.0000 C   0  0  0  0  0  0  0  0  0
   -1.2645    0.5601    0.0000 C   0  0  0  0  0  0  0  0  0
   -0.5501    0.1476    0.0000 C   0  0  0  0  0  0  0  0  0
   -3.0186   -1.7169    0.0000 C   0  0  0  0  0  0  0  0  0
   -3.8255   -1.8885    0.0000 C   0  0  0  0  0  0  0  0  0
   -4.0805   -2.6731    0.0000 N   0  0  0  0  0  0  0  0  0
  1  2  1  0  0  0  0
  2  3  4  0  0  0  0
  2 10  4  0  0  0  0
  3  4  4  0  0  0  0
  4  5  4  0  0  0  0
  4  8  4  0  0  0  0
  5  6  4  0  0  0  0
  5 11  1  0  0  0  0
  6  7  4  0  0  0  0
  7  8  4  0  0  0  0
  8  9  4  0  0  0  0
  9 10  4  0  0  0  0
 11 12  1  0  0  0  0
 12 13  1  0  0  0  0
M  END
>  <Name_Molregno>
335729

>  <5-HT2A>
7.7

>  <5-HT2C>
8.02

$$$$
335730
  Marvin  02231216192D 0   1.00000     0.00000     0

 14 15  0  0  1  0  0  0  0  0999 V2000
    0.1624   -1.0405    0.0000 O   0  0  0  0  0  0  0  0  0
   -0.5521   -0.6280    0.0000 C   0  0  0  0  0  0  0  0  0
   -1.2666   -1.0405    0.0000 C   0  0  0  0  0  0  0  0  0
   -1.9811   -0.6280    0.0000 C   0  0  0  0  0  0  0  0  0
   -2.7657   -0.8829    0.0000 N   0  0  0  0  0  0  0  0  0
   -3.2506   -0.2155    0.0000 N   0  0  0  0  0  0  0  0  0
   -2.7657    0.4520    0.0000 C   0  0  0  0  0  0  0  0  0
   -1.9811    0.1970    0.0000 C   0  0  0  0  0  0  0  0  0
   -1.2666    0.6095    0.0000 C   0  0  0  0  0  0  0  0  0
   -0.5521    0.1970    0.0000 C   0  0  0  0  0  0  0  0  0
   -3.0206   -1.6675    0.0000 C   0  0  0  0  0  0  0  0  0
   -3.8276   -1.8391    0.0000 C   0  0  0  0  0  0  0  0  0
   -4.0825   -2.6237    0.0000 N   0  0  0  0  0  0  0  0  0
   -4.3796   -1.2260    0.0000 C   0  0  0  0  0  0  0  0  0
  1  2  1  0  0  0  0
  2  3  4  0  0  0  0
  2 10  4  0  0  0  0
  3  4  4  0  0  0  0
  4  5  4  0  0  0  0
  4  8  4  0  0  0  0
  5  6  4  0  0  0  0
  5 11  1  0  0  0  0
  6  7  4  0  0  0  0
  7  8  4  0  0  0  0
  8  9  4  0  0  0  0
  9 10  4  0  0  0  0
 11 12  1  0  0  0  0
 12 13  1  0  0  0  0
 12 14  1  0  0  0  0
M  END
>  <Name_Molregno>
335730

>  <5-HT1A>
6.85

>  <5-HT1B>
5

>  <5-HT1D>
5.1

>  <5-HT2A>
7.45

>  <5-HT2C>
8

>  <5-HT3>
5

>  <5-HT5>
5

>  <5-HT6>
5

>  <Alpha-1A>
4.52

>  <Alpha-1B>
4.52

>  <Alpha-2A>
5.64

>  <Alpha-2C>
5.33

>  <Norepinephrine transporter>
5

>  <Serotonin transporter>
5

$$$$
335908
  Marvin  02231216192D 0   1.00000     0.00000     0

 15 16  0  0  1  0  0  0  0  0999 V2000
    0.6648   -2.3891    0.0000 Cl  0  0  0  0  0  0  0  0  0
    0.6648   -1.5641    0.0000 C   0  0  0  0  0  0  0  0  0
   -0.0497   -1.1516    0.0000 C   0  0  0  0  0  0  0  0  0
   -0.8343   -1.4065    0.0000 N   0  0  0  0  0  0  0  0  0
   -1.3192   -0.7391    0.0000 N   0  0  0  0  0  0  0  0  0
   -0.8343   -0.0716    0.0000 C   0  0  0  0  0  0  0  0  0
   -0.0497   -0.3266    0.0000 C   0  0  0  0  0  0  0  0  0
    0.6648    0.0859    0.0000 C   0  0  0  0  0  0  0  0  0
    1.3793   -0.3266    0.0000 C   0  0  0  0  0  0  0  0  0
    1.3793   -1.1516    0.0000 C   0  0  0  0  0  0  0  0  0
    2.0938   -1.5641    0.0000 O   0  0  0  0  0  0  0  0  0
   -1.0892   -2.1911    0.0000 C   0  0  0  0  0  0  0  0  0
   -1.8962   -2.3627    0.0000 C   0  0  0  0  0  0  0  0  0
   -2.1511   -3.1473    0.0000 N   0  0  0  0  0  0  0  0  0
   -2.4482   -1.7496    0.0000 C   0  0  0  0  0  0  0  0  0
  1  2  1  0  0  0  0
  2  3  4  0  0  0  0
  2 10  4  0  0  0  0
  3  4  4  0  0  0  0
  3  7  4  0  0  0  0
  4  5  4  0  0  0  0
  4 12  1  0  0  0  0
  5  6  4  0  0  0  0
  6  7  4  0  0  0  0
  7  8  4  0  0  0  0
  8  9  4  0  0  0  0
  9 10  4  0  0  0  0
 10 11  1  0  0  0  0
 12 13  1  0  0  0  0
 13 14  1  0  0  0  0
 13 15  1  0  0  0  0
M  END
>  <Name_Molregno>
335908

>  <5-HT2A>
7.92

>  <5-HT2C>
8.92

$$$$
335909
  Marvin  02231216192D 0   1.00000     0.00000     0

 15 16  0  0  1  0  0  0  0  0999 V2000
    0.6648   -2.3891    0.0000 I   0  0  0  0  0  0  0  0  0
    0.6648   -1.5641    0.0000 C   0  0  0  0  0  0  0  0  0
   -0.0497   -1.1516    0.0000 C   0  0  0  0  0  0  0  0  0
   -0.8343   -1.4065    0.0000 N   0  0  0  0  0  0  0  0  0
   -1.3192   -0.7391    0.0000 N   0  0  0  0  0  0  0  0  0
   -0.8343   -0.0716    0.0000 C   0  0  0  0  0  0  0  0  0
   -0.0497   -0.3266    0.0000 C   0  0  0  0  0  0  0  0  0
    0.6648    0.0859    0.0000 C   0  0  0  0  0  0  0  0  0
    1.3793   -0.3266    0.0000 C   0  0  0  0  0  0  0  0  0
    1.3793   -1.1516    0.0000 C   0  0  0  0  0  0  0  0  0
    2.0938   -1.5641    0.0000 O   0  0  0  0  0  0  0  0  0
   -1.0892   -2.1911    0.0000 C   0  0  0  0  0  0  0  0  0
   -1.8962   -2.3627    0.0000 C   0  0  0  0  0  0  0  0  0
   -2.1511   -3.1473    0.0000 N   0  0  0  0  0  0  0  0  0
   -2.4482   -1.7496    0.0000 C   0  0  0  0  0  0  0  0  0
  1  2  1  0  0  0  0
  2  3  4  0  0  0  0
  2 10  4  0  0  0  0
  3  4  4  0  0  0  0
  3  7  4  0  0  0  0
  4  5  4  0  0  0  0
  4 12  1  0  0  0  0
  5  6  4  0  0  0  0
  6  7  4  0  0  0  0
  7  8  4  0  0  0  0
  8  9  4  0  0  0  0
  9 10  4  0  0  0  0
 10 11  1  0  0  0  0
 12 13  1  0  0  0  0
 13 14  1  0  0  0  0
 13 15  1  0  0  0  0
M  END
>  <Name_Molregno>
335909

>  <5-HT2A>
7.68

>  <5-HT2C>
8.32

$$$$
338106
  Marvin  02231216192D 0   1.00000     0.00000     0

 17 19  0  0  1  0  0  0  0  0999 V2000
    0.3851   -0.4686    0.0000 N   0  0  0  0  0  0  0  0  0
   -0.0495   -1.1698    0.0000 C   0  0  0  0  0  0  0  0  0
    0.3405   -1.8968    0.0000 C   0  0  0  0  0  0  0  0  0
   -0.0941   -2.5981    0.0000 C   0  0  0  0  0  0  0  0  0
   -0.9187   -2.5723    0.0000 C   0  0  0  0  0  0  0  0  0
   -1.3087   -1.8453    0.0000 C   0  0  0  0  0  0  0  0  0
   -0.8741   -1.1441    0.0000 C   0  0  0  0  0  0  0  0  0
   -1.4067   -0.5140    0.0000 N   0  0  0  0  0  0  0  0  0
   -2.1705   -0.8259    0.0000 C   0  0  0  0  0  0  0  0  0
   -2.1100   -1.6487    0.0000 C   0  0  0  0  0  0  0  0  0
   -1.2101    0.2872    0.0000 C   0  0  0  0  0  0  0  0  0
   -1.8057    0.8581    0.0000 C   0  0  0  0  0  0  0  0  0
   -1.6090    1.6593    0.0000 N   0  0  0  0  0  0  0  0  0
   -2.5979    0.6278    0.0000 C   0  0  0  0  0  0  0  0  0
    1.1651   -1.9226    0.0000 C   0  0  0  0  0  0  0  0  0
    1.5997   -1.2214    0.0000 C   0  0  0  0  0  0  0  0  0
    1.2097   -0.4944    0.0000 C   0  0  0  0  0  0  0  0  0
  1  2  4  0  0  0  0
  1 17  4  0  0  0  0
  2  3  4  0  0  0  0
  2  7  4  0  0  0  0
  3  4  4  0  0  0  0
  3 15  4  0  0  0  0
  4  5  4  0  0  0  0
  5  6  4  0  0  0  0
  6  7  4  0  0  0  0
  6 10  4  0  0  0  0
  7  8  4  0  0  0  0
  8  9  4  0  0  0  0
  8 11  1  0  0  0  0
  9 10  4  0  0  0  0
 11 12  1  0  0  0  0
 12 13  1  0  0  0  0
 12 14  1  0  0  0  0
 15 16  4  0  0  0  0
 16 17  4  0  0  0  0
M  END
>  <Name_Molregno>
338106

>  <5-HT2A>
6.64

>  <5-HT2C>
7.57

$$$$
338149
  Marvin  02231216192D 0   1.00000     0.00000     0

 26 29  0  0  1  0  0  0  0  0999 V2000
   -5.4360   -1.1545    0.0000 O   0  0  0  0  0  0  0  0  0
   -6.0315   -1.7254    0.0000 C   0  0  0  0  0  0  0  0  0
   -5.6326   -0.3533    0.0000 C   0  0  0  0  0  0  0  0  0
   -6.4248   -0.1230    0.0000 C   0  0  0  0  0  0  0  0  0
   -6.6215    0.6782    0.0000 C   0  0  0  0  0  0  0  0  0
   -6.0259    1.2491    0.0000 C   0  0  0  0  0  0  0  0  0
   -5.2337    1.0188    0.0000 C   0  0  0  0  0  0  0  0  0
   -5.0371    0.2176    0.0000 C   0  0  0  0  0  0  0  0  0
   -4.2449   -0.0127    0.0000 C   0  0  0  0  0  0  0  0  0
   -4.0482   -0.8139    0.0000 N   0  0  0  0  0  0  0  0  0
   -3.2560   -1.0442    0.0000 C   0  0  0  0  0  0  0  0  0
   -2.6605   -0.4733    0.0000 C   0  0  0  0  0  0  0  0  0
   -2.8571    0.3279    0.0000 N   0  0  0  0  0  0  0  0  0
   -2.3245    0.9579    0.0000 C   0  0  0  0  0  0  0  0  0
   -1.4999    0.9837    0.0000 C   0  0  0  0  0  0  0  0  0
   -1.1099    1.7107    0.0000 C   0  0  0  0  0  0  0  0  0
   -0.2853    1.7365    0.0000 N   0  0  0  0  0  0  0  0  0
    0.1493    1.0352    0.0000 C   0  0  0  0  0  0  0  0  0
   -0.2407    0.3082    0.0000 C   0  0  0  0  0  0  0  0  0
   -1.0653    0.2824    0.0000 C   0  0  0  0  0  0  0  0  0
   -1.5445    2.4119    0.0000 C   0  0  0  0  0  0  0  0  0
   -2.3691    2.3862    0.0000 C   0  0  0  0  0  0  0  0  0
   -2.7591    1.6592    0.0000 C   0  0  0  0  0  0  0  0  0
   -3.5603    1.4625    0.0000 C   0  0  0  0  0  0  0  0  0
   -3.6209    0.6398    0.0000 C   0  0  0  0  0  0  0  0  0
   -3.0594   -1.8455    0.0000 C   0  0  0  0  0  0  0  0  0
  1  2  1  0  0  0  0
  1  3  1  0  0  0  0
  3  4  4  0  0  0  0
  3  8  4  0  0  0  0
  4  5  4  0  0  0  0
  5  6  4  0  0  0  0
  6  7  4  0  0  0  0
  7  8  4  0  0  0  0
  8  9  1  0  0  0  0
  9 10  1  0  0  0  0
 10 11  1  0  0  0  0
 11 12  1  0  0  0  0
 11 26  1  0  0  0  0
 12 13  1  0  0  0  0
 13 14  4  0  0  0  0
 13 25  4  0  0  0  0
 14 15  4  0  0  0  0
 14 23  4  0  0  0  0
 15 16  4  0  0  0  0
 15 20  4  0  0  0  0
 16 17  4  0  0  0  0
 16 21  4  0  0  0  0
 17 18  4  0  0  0  0
 18 19  4  0  0  0  0
 19 20  4  0  0  0  0
 21 22  4  0  0  0  0
 22 23  4  0  0  0  0
 23 24  4  0  0  0  0
 24 25  4  0  0  0  0
M  END
>  <Name_Molregno>
338149

>  <5-HT2A>
5.8

>  <5-HT2C>
6.77

$$$$
338162
  Marvin  02231216192D 0   1.00000     0.00000     0

 24 27  0  0  1  0  0  0  0  0999 V2000
   -0.8373    1.5500    0.0000 N   0  0  0  0  0  0  0  0  0
   -1.6619    1.5242    0.0000 C   0  0  0  0  0  0  0  0  0
   -2.0519    0.7972    0.0000 C   0  0  0  0  0  0  0  0  0
   -2.8765    0.7714    0.0000 C   0  0  0  0  0  0  0  0  0
   -3.4091    0.1414    0.0000 N   0  0  0  0  0  0  0  0  0
   -4.1729    0.4533    0.0000 C   0  0  0  0  0  0  0  0  0
   -4.1124    1.2760    0.0000 C   0  0  0  0  0  0  0  0  0
   -3.3111    1.4727    0.0000 C   0  0  0  0  0  0  0  0  0
   -2.9211    2.1997    0.0000 C   0  0  0  0  0  0  0  0  0
   -2.0965    2.2254    0.0000 C   0  0  0  0  0  0  0  0  0
   -3.2125   -0.6598    0.0000 C   0  0  0  0  0  0  0  0  0
   -3.8081   -1.2307    0.0000 C   0  0  0  0  0  0  0  0  0
   -3.6114   -2.0319    0.0000 N   0  0  0  0  0  0  0  0  0
   -4.2070   -2.6029    0.0000 C   0  0  0  0  0  0  0  0  0
   -4.0103   -3.4041    0.0000 C   0  0  0  0  0  0  0  0  0
   -3.2181   -3.6344    0.0000 C   0  0  0  0  0  0  0  0  0
   -3.0215   -4.4356    0.0000 C   0  0  0  0  0  0  0  0  0
   -3.6170   -5.0065    0.0000 C   0  0  0  0  0  0  0  0  0
   -4.4092   -4.7762    0.0000 C   0  0  0  0  0  0  0  0  0
   -4.6059   -3.9750    0.0000 C   0  0  0  0  0  0  0  0  0
   -4.6003   -1.0004    0.0000 C   0  0  0  0  0  0  0  0  0
   -1.6173    0.0960    0.0000 C   0  0  0  0  0  0  0  0  0
   -0.7927    0.1217    0.0000 C   0  0  0  0  0  0  0  0  0
   -0.4027    0.8487    0.0000 C   0  0  0  0  0  0  0  0  0
  1  2  4  0  0  0  0
  1 24  4  0  0  0  0
  2  3  4  0  0  0  0
  2 10  4  0  0  0  0
  3  4  4  0  0  0  0
  3 22  4  0  0  0  0
  4  5  4  0  0  0  0
  4  8  4  0  0  0  0
  5  6  4  0  0  0  0
  5 11  1  0  0  0  0
  6  7  4  0  0  0  0
  7  8  4  0  0  0  0
  8  9  4  0  0  0  0
  9 10  4  0  0  0  0
 11 12  1  0  0  0  0
 12 13  1  0  0  0  0
 12 21  1  0  0  0  0
 13 14  1  0  0  0  0
 14 15  1  0  0  0  0
 15 16  1  0  0  0  0
 15 20  1  0  0  0  0
 16 17  1  0  0  0  0
 17 18  1  0  0  0  0
 18 19  1  0  0  0  0
 19 20  1  0  0  0  0
 22 23  4  0  0  0  0
 23 24  4  0  0  0  0
M  END
>  <Name_Molregno>
338162

>  <5-HT2A>
6.05

>  <5-HT2C>
7.11

$$$$
338169
  Marvin  02231216192D 0   1.00000     0.00000     0

 20 22  0  0  1  0  0  0  0  0999 V2000
   -4.4903    0.5161    0.0000 N   0  0  0  0  0  0  0  0  0
   -4.2354   -0.2685    0.0000 C   0  0  0  0  0  0  0  0  0
   -3.4284   -0.4401    0.0000 C   0  0  0  0  0  0  0  0  0
   -3.1735   -1.2247    0.0000 C   0  0  0  0  0  0  0  0  0
   -2.4198   -1.5602    0.0000 N   0  0  0  0  0  0  0  0  0
   -2.5061   -2.3807    0.0000 C   0  0  0  0  0  0  0  0  0
   -3.3130   -2.5522    0.0000 C   0  0  0  0  0  0  0  0  0
   -3.7255   -1.8378    0.0000 C   0  0  0  0  0  0  0  0  0
   -4.5325   -1.6662    0.0000 C   0  0  0  0  0  0  0  0  0
   -4.7874   -0.8816    0.0000 C   0  0  0  0  0  0  0  0  0
   -1.7054   -1.1477    0.0000 C   0  0  0  0  0  0  0  0  0
   -0.9909   -1.5602    0.0000 C   0  0  0  0  0  0  0  0  0
   -0.2764   -1.1477    0.0000 N   0  0  0  0  0  0  0  0  0
    0.4381   -1.5602    0.0000 C   0  0  0  0  0  0  0  0  0
    1.1525   -1.1477    0.0000 C   0  0  0  0  0  0  0  0  0
    1.8670   -1.5602    0.0000 C   0  0  0  0  0  0  0  0  0
   -0.9909   -2.3852    0.0000 C   0  0  0  0  0  0  0  0  0
   -2.8764    0.1730    0.0000 C   0  0  0  0  0  0  0  0  0
   -3.1313    0.9577    0.0000 C   0  0  0  0  0  0  0  0  0
   -3.9383    1.1292    0.0000 C   0  0  0  0  0  0  0  0  0
  1  2  4  0  0  0  0
  1 20  4  0  0  0  0
  2  3  4  0  0  0  0
  2 10  4  0  0  0  0
  3  4  4  0  0  0  0
  3 18  4  0  0  0  0
  4  5  4  0  0  0  0
  4  8  4  0  0  0  0
  5  6  4  0  0  0  0
  5 11  1  0  0  0  0
  6  7  4  0  0  0  0
  7  8  4  0  0  0  0
  8  9  4  0  0  0  0
  9 10  4  0  0  0  0
 11 12  1  0  0  0  0
 12 13  1  0  0  0  0
 12 17  1  0  0  0  0
 13 14  1  0  0  0  0
 14 15  1  0  0  0  0
 15 16  2  0  0  0  0
 18 19  4  0  0  0  0
 19 20  4  0  0  0  0
M  END
>  <Name_Molregno>
338169

>  <5-HT2A>
5.94

>  <5-HT2C>
7.07

$$$$
338175
  Marvin  02231216192D 0   1.00000     0.00000     0

 18 20  0  0  1  0  0  0  0  0999 V2000
    3.3235    2.5871    0.0000 Cl  0  0  0  0  0  0  0  0  0
    2.9335    1.8601    0.0000 C   0  0  0  0  0  0  0  0  0
    3.3681    1.1588    0.0000 C   0  0  0  0  0  0  0  0  0
    4.1927    1.1846    0.0000 N   0  0  0  0  0  0  0  0  0
    4.6273    0.4834    0.0000 C   0  0  0  0  0  0  0  0  0
    4.2373   -0.2436    0.0000 C   0  0  0  0  0  0  0  0  0
    3.4127   -0.2694    0.0000 C   0  0  0  0  0  0  0  0  0
    2.9781    0.4318    0.0000 C   0  0  0  0  0  0  0  0  0
    2.1535    0.4061    0.0000 C   0  0  0  0  0  0  0  0  0
    1.6209   -0.2240    0.0000 N   0  0  0  0  0  0  0  0  0
    0.8571    0.0879    0.0000 C   0  0  0  0  0  0  0  0  0
    0.9177    0.9107    0.0000 C   0  0  0  0  0  0  0  0  0
    1.7189    1.1073    0.0000 C   0  0  0  0  0  0  0  0  0
    2.1089    1.8343    0.0000 C   0  0  0  0  0  0  0  0  0
    1.8175   -1.0252    0.0000 C   0  0  0  0  0  0  0  0  0
    1.2220   -1.5961    0.0000 C   0  0  0  0  0  0  0  0  0
    1.4186   -2.3973    0.0000 N   0  0  0  0  0  0  0  0  0
    0.4298   -1.3658    0.0000 C   0  0  0  0  0  0  0  0  0
  1  2  1  0  0  0  0
  2  3  4  0  0  0  0
  2 14  4  0  0  0  0
  3  4  4  0  0  0  0
  3  8  4  0  0  0  0
  4  5  4  0  0  0  0
  5  6  4  0  0  0  0
  6  7  4  0  0  0  0
  7  8  4  0  0  0  0
  8  9  4  0  0  0  0
  9 10  4  0  0  0  0
  9 13  4  0  0  0  0
 10 11  4  0  0  0  0
 10 15  1  0  0  0  0
 11 12  4  0  0  0  0
 12 13  4  0  0  0  0
 13 14  4  0  0  0  0
 15 16  1  0  0  0  0
 16 17  1  0  0  0  0
 16 18  1  0  0  0  0
M  END
>  <Name_Molregno>
338175

>  <5-HT2A>
7.54

>  <5-HT2C>
8.62

$$$$
338354
  Marvin  02231216192D 0   1.00000     0.00000     0

 17 19  0  0  1  0  0  0  0  0999 V2000
    1.3313   -1.4070    0.0000 N   0  0  0  0  0  0  0  0  0
    0.5067   -1.3813    0.0000 C   0  0  0  0  0  0  0  0  0
    0.0721   -2.0825    0.0000 C   0  0  0  0  0  0  0  0  0
    0.4621   -2.8095    0.0000 C   0  0  0  0  0  0  0  0  0
    0.0275   -3.5108    0.0000 C   0  0  0  0  0  0  0  0  0
   -0.7971   -3.4850    0.0000 C   0  0  0  0  0  0  0  0  0
   -1.1871   -2.7580    0.0000 C   0  0  0  0  0  0  0  0  0
   -0.7525   -2.0567    0.0000 C   0  0  0  0  0  0  0  0  0
   -1.2851   -1.4267    0.0000 N   0  0  0  0  0  0  0  0  0
   -2.0489   -1.7386    0.0000 C   0  0  0  0  0  0  0  0  0
   -1.9883   -2.5613    0.0000 C   0  0  0  0  0  0  0  0  0
   -1.0885   -0.6255    0.0000 C   0  0  0  0  0  0  0  0  0
   -1.6840   -0.0546    0.0000 C   0  0  0  0  0  0  0  0  0
   -1.4874    0.7466    0.0000 N   0  0  0  0  0  0  0  0  0
   -2.4762   -0.2849    0.0000 C   0  0  0  0  0  0  0  0  0
    1.2867   -2.8353    0.0000 C   0  0  0  0  0  0  0  0  0
    1.7213   -2.1340    0.0000 C   0  0  0  0  0  0  0  0  0
  1  2  4  0  0  0  0
  1 17  4  0  0  0  0
  2  3  4  0  0  0  0
  3  4  4  0  0  0  0
  3  8  4  0  0  0  0
  4  5  4  0  0  0  0
  4 16  4  0  0  0  0
  5  6  4  0  0  0  0
  6  7  4  0  0  0  0
  7  8  4  0  0  0  0
  7 11  4  0  0  0  0
  8  9  4  0  0  0  0
  9 10  4  0  0  0  0
  9 12  1  0  0  0  0
 10 11  4  0  0  0  0
 12 13  1  0  0  0  0
 13 14  1  0  0  0  0
 13 15  1  0  0  0  0
 16 17  4  0  0  0  0
M  END
>  <Name_Molregno>
338354

>  <5-HT2A>
6.64

>  <5-HT2C>
7.43

$$$$
338355
  Marvin  02231216192D 0   1.00000     0.00000     0

 28 32  0  0  1  0  0  0  0  0999 V2000
   -7.3584    2.0562    0.0000 N   0  0  0  0  0  0  0  0  0
   -7.1034    1.2716    0.0000 C   0  0  0  0  0  0  0  0  0
   -6.2965    1.1001    0.0000 C   0  0  0  0  0  0  0  0  0
   -6.0415    0.3155    0.0000 C   0  0  0  0  0  0  0  0  0
   -5.2878   -0.0201    0.0000 N   0  0  0  0  0  0  0  0  0
   -5.3741   -0.8406    0.0000 C   0  0  0  0  0  0  0  0  0
   -6.1811   -1.0121    0.0000 C   0  0  0  0  0  0  0  0  0
   -6.5936   -0.2976    0.0000 C   0  0  0  0  0  0  0  0  0
   -7.4005   -0.1261    0.0000 C   0  0  0  0  0  0  0  0  0
   -7.6555    0.6585    0.0000 C   0  0  0  0  0  0  0  0  0
   -4.5734    0.3924    0.0000 C   0  0  0  0  0  0  0  0  0
   -3.8589   -0.0201    0.0000 C   0  0  0  0  0  0  0  0  0
   -3.1444    0.3924    0.0000 N   0  0  0  0  0  0  0  0  0
   -2.4300   -0.0201    0.0000 C   0  0  0  0  0  0  0  0  0
   -1.7155    0.3924    0.0000 C   0  0  0  0  0  0  0  0  0
   -1.0010   -0.0201    0.0000 C   0  0  0  0  0  0  0  0  0
   -0.2866    0.3924    0.0000 C   0  0  0  0  0  0  0  0  0
   -0.2866    1.2174    0.0000 C   0  0  0  0  0  0  0  0  0
   -1.0010    1.6299    0.0000 C   0  0  0  0  0  0  0  0  0
   -1.7155    1.2174    0.0000 C   0  0  0  0  0  0  0  0  0
    0.4279    1.6299    0.0000 C   0  0  0  0  0  0  0  0  0
    1.1424    1.2174    0.0000 C   0  0  0  0  0  0  0  0  0
    1.1424    0.3924    0.0000 C   0  0  0  0  0  0  0  0  0
    0.4279   -0.0201    0.0000 C   0  0  0  0  0  0  0  0  0
   -3.8589   -0.8451    0.0000 C   0  0  0  0  0  0  0  0  0
   -5.7444    1.7132    0.0000 C   0  0  0  0  0  0  0  0  0
   -5.9994    2.4978    0.0000 C   0  0  0  0  0  0  0  0  0
   -6.8063    2.6693    0.0000 C   0  0  0  0  0  0  0  0  0
  1  2  4  0  0  0  0
  1 28  4  0  0  0  0
  2  3  4  0  0  0  0
  2 10  4  0  0  0  0
  3  4  4  0  0  0  0
  3 26  4  0  0  0  0
  4  5  4  0  0  0  0
  4  8  4  0  0  0  0
  5  6  4  0  0  0  0
  5 11  1  0  0  0  0
  6  7  4  0  0  0  0
  7  8  4  0  0  0  0
  8  9  4  0  0  0  0
  9 10  4  0  0  0  0
 11 12  1  0  0  0  0
 12 13  1  0  0  0  0
 12 25  1  0  0  0  0
 13 14  1  0  0  0  0
 14 15  1  0  0  0  0
 15 16  4  0  0  0  0
 15 20  4  0  0  0  0
 16 17  4  0  0  0  0
 17 18  4  0  0  0  0
 17 24  4  0  0  0  0
 18 19  4  0  0  0  0
 18 21  4  0  0  0  0
 19 20  4  0  0  0  0
 21 22  4  0  0  0  0
 22 23  4  0  0  0  0
 23 24  4  0  0  0  0
 26 27  4  0  0  0  0
 27 28  4  0  0  0  0
M  END
>  <Name_Molregno>
338355

>  <5-HT2A>
6.74

>  <5-HT2C>
7.8

$$$$
338363
  Marvin  02231216192D 0   1.00000     0.00000     0

 17 19  0  0  1  0  0  0  0  0999 V2000
    0.2079   -0.5207    0.0000 N   0  0  0  0  0  0  0  0  0
   -0.2267    0.1806    0.0000 C   0  0  0  0  0  0  0  0  0
   -1.0513    0.1548    0.0000 C   0  0  0  0  0  0  0  0  0
   -1.4413   -0.5722    0.0000 C   0  0  0  0  0  0  0  0  0
   -2.2659   -0.5980    0.0000 C   0  0  0  0  0  0  0  0  0
   -2.7985   -1.2280    0.0000 N   0  0  0  0  0  0  0  0  0
   -3.5623   -0.9161    0.0000 C   0  0  0  0  0  0  0  0  0
   -3.5017   -0.0934    0.0000 C   0  0  0  0  0  0  0  0  0
   -2.7005    0.1033    0.0000 C   0  0  0  0  0  0  0  0  0
   -2.3105    0.8303    0.0000 C   0  0  0  0  0  0  0  0  0
   -1.4859    0.8560    0.0000 C   0  0  0  0  0  0  0  0  0
   -2.6019   -2.0292    0.0000 C   0  0  0  0  0  0  0  0  0
   -3.1974   -2.6001    0.0000 C   0  0  0  0  0  0  0  0  0
   -3.0008   -3.4014    0.0000 N   0  0  0  0  0  0  0  0  0
   -3.9896   -2.3698    0.0000 C   0  0  0  0  0  0  0  0  0
   -1.0067   -1.2735    0.0000 C   0  0  0  0  0  0  0  0  0
   -0.1821   -1.2477    0.0000 C   0  0  0  0  0  0  0  0  0
  1  2  4  0  0  0  0
  1 17  4  0  0  0  0
  2  3  4  0  0  0  0
  3  4  4  0  0  0  0
  3 11  4  0  0  0  0
  4  5  4  0  0  0  0
  4 16  4  0  0  0  0
  5  6  4  0  0  0  0
  5  9  4  0  0  0  0
  6  7  4  0  0  0  0
  6 12  1  0  0  0  0
  7  8  4  0  0  0  0
  8  9  4  0  0  0  0
  9 10  4  0  0  0  0
 10 11  4  0  0  0  0
 12 13  1  0  0  0  0
 13 14  1  0  0  0  0
 13 15  1  0  0  0  0
 16 17  4  0  0  0  0
M  END
>  <Name_Molregno>
338363

>  <5-HT2A>
5.98

>  <5-HT2C>
7.14

$$$$
338364
  Marvin  02231216192D 0   1.00000     0.00000     0

 27 31  0  0  1  0  0  0  0  0999 V2000
   -5.9889   -4.7379    0.0000 O   0  0  0  0  0  0  0  0  0
   -5.5251   -4.0556    0.0000 C   0  0  0  0  0  0  0  0  0
   -5.7217   -3.2544    0.0000 C   0  0  0  0  0  0  0  0  0
   -5.1261   -2.6835    0.0000 C   0  0  0  0  0  0  0  0  0
   -4.3339   -2.9138    0.0000 C   0  0  0  0  0  0  0  0  0
   -4.1373   -3.7150    0.0000 C   0  0  0  0  0  0  0  0  0
   -4.7329   -4.2859    0.0000 C   0  0  0  0  0  0  0  0  0
   -4.7071   -5.1105    0.0000 O   0  0  0  0  0  0  0  0  0
   -5.4834   -5.3898    0.0000 C   0  0  0  0  0  0  0  0  0
   -5.3228   -1.8822    0.0000 C   0  0  0  0  0  0  0  0  0
   -4.7272   -1.3113    0.0000 N   0  0  0  0  0  0  0  0  0
   -4.9239   -0.5101    0.0000 C   0  0  0  0  0  0  0  0  0
   -4.3283    0.0608    0.0000 C   0  0  0  0  0  0  0  0  0
   -4.5250    0.8620    0.0000 N   0  0  0  0  0  0  0  0  0
   -3.9923    1.4921    0.0000 C   0  0  0  0  0  0  0  0  0
   -3.1677    1.5178    0.0000 C   0  0  0  0  0  0  0  0  0
   -2.7778    2.2448    0.0000 C   0  0  0  0  0  0  0  0  0
   -1.9532    2.2706    0.0000 N   0  0  0  0  0  0  0  0  0
   -1.5185    1.5693    0.0000 C   0  0  0  0  0  0  0  0  0
   -1.9085    0.8423    0.0000 C   0  0  0  0  0  0  0  0  0
   -2.7331    0.8166    0.0000 C   0  0  0  0  0  0  0  0  0
   -3.2124    2.9461    0.0000 C   0  0  0  0  0  0  0  0  0
   -4.0370    2.9203    0.0000 C   0  0  0  0  0  0  0  0  0
   -4.4269    2.1933    0.0000 C   0  0  0  0  0  0  0  0  0
   -5.2282    1.9967    0.0000 C   0  0  0  0  0  0  0  0  0
   -5.2887    1.1739    0.0000 C   0  0  0  0  0  0  0  0  0
   -5.7161   -0.2798    0.0000 C   0  0  0  0  0  0  0  0  0
  1  2  1  0  0  0  0
  1  9  1  0  0  0  0
  2  3  4  0  0  0  0
  2  7  4  0  0  0  0
  3  4  4  0  0  0  0
  4  5  4  0  0  0  0
  4 10  1  0  0  0  0
  5  6  4  0  0  0  0
  6  7  4  0  0  0  0
  7  8  1  0  0  0  0
  8  9  1  0  0  0  0
 10 11  1  0  0  0  0
 11 12  1  0  0  0  0
 12 13  1  0  0  0  0
 12 27  1  0  0  0  0
 13 14  1  0  0  0  0
 14 15  4  0  0  0  0
 14 26  4  0  0  0  0
 15 16  4  0  0  0  0
 15 24  4  0  0  0  0
 16 17  4  0  0  0  0
 16 21  4  0  0  0  0
 17 18  4  0  0  0  0
 17 22  4  0  0  0  0
 18 19  4  0  0  0  0
 19 20  4  0  0  0  0
 20 21  4  0  0  0  0
 22 23  4  0  0  0  0
 23 24  4  0  0  0  0
 24 25  4  0  0  0  0
 25 26  4  0  0  0  0
M  END
>  <Name_Molregno>
338364

>  <5-HT2A>
6.4

>  <5-HT2C>
7.8

$$$$
338444
  Marvin  02231216192D 0   1.00000     0.00000     0

 25 28  0  0  1  0  0  0  0  0999 V2000
   -0.8867    3.3031    0.0000 N   0  0  0  0  0  0  0  0  0
   -1.7113    3.2773    0.0000 C   0  0  0  0  0  0  0  0  0
   -2.1013    2.5503    0.0000 C   0  0  0  0  0  0  0  0  0
   -2.9259    2.5246    0.0000 C   0  0  0  0  0  0  0  0  0
   -3.4585    1.8945    0.0000 N   0  0  0  0  0  0  0  0  0
   -4.2223    2.2064    0.0000 C   0  0  0  0  0  0  0  0  0
   -4.1617    3.0292    0.0000 C   0  0  0  0  0  0  0  0  0
   -3.3605    3.2258    0.0000 C   0  0  0  0  0  0  0  0  0
   -2.9705    3.9528    0.0000 C   0  0  0  0  0  0  0  0  0
   -2.1459    3.9786    0.0000 C   0  0  0  0  0  0  0  0  0
   -3.2619    1.0933    0.0000 C   0  0  0  0  0  0  0  0  0
   -3.8574    0.5224    0.0000 C   0  0  0  0  0  0  0  0  0
   -3.6608   -0.2788    0.0000 N   0  0  0  0  0  0  0  0  0
   -4.2563   -0.8497    0.0000 C   0  0  0  0  0  0  0  0  0
   -4.0597   -1.6509    0.0000 C   0  0  0  0  0  0  0  0  0
   -3.2675   -1.8813    0.0000 C   0  0  0  0  0  0  0  0  0
   -3.0708   -2.6825    0.0000 C   0  0  0  0  0  0  0  0  0
   -3.6664   -3.2534    0.0000 C   0  0  0  0  0  0  0  0  0
   -4.4586   -3.0231    0.0000 C   0  0  0  0  0  0  0  0  0
   -4.6552   -2.2219    0.0000 C   0  0  0  0  0  0  0  0  0
   -5.4474   -1.9915    0.0000 C   0  0  0  0  0  0  0  0  0
   -4.6496    0.7527    0.0000 C   0  0  0  0  0  0  0  0  0
   -1.6667    1.8491    0.0000 C   0  0  0  0  0  0  0  0  0
   -0.8421    1.8749    0.0000 C   0  0  0  0  0  0  0  0  0
   -0.4521    2.6019    0.0000 C   0  0  0  0  0  0  0  0  0
  1  2  4  0  0  0  0
  1 25  4  0  0  0  0
  2  3  4  0  0  0  0
  2 10  4  0  0  0  0
  3  4  4  0  0  0  0
  3 23  4  0  0  0  0
  4  5  4  0  0  0  0
  4  8  4  0  0  0  0
  5  6  4  0  0  0  0
  5 11  1  0  0  0  0
  6  7  4  0  0  0  0
  7  8  4  0  0  0  0
  8  9  4  0  0  0  0
  9 10  4  0  0  0  0
 11 12  1  0  0  0  0
 12 13  1  0  0  0  0
 12 22  1  0  0  0  0
 13 14  1  0  0  0  0
 14 15  1  0  0  0  0
 15 16  4  0  0  0  0
 15 20  4  0  0  0  0
 16 17  4  0  0  0  0
 17 18  4  0  0  0  0
 18 19  4  0  0  0  0
 19 20  4  0  0  0  0
 20 21  1  0  0  0  0
 23 24  4  0  0  0  0
 24 25  4  0  0  0  0
M  END
>  <Name_Molregno>
338444

>  <5-HT2A>
5.77

>  <5-HT2C>
6.77

$$$$
338482
  Marvin  02231216192D 0   1.00000     0.00000     0

 25 28  0  0  1  0  0  0  0  0999 V2000
   -2.8701   -3.5447    0.0000 Cl  0  0  0  0  0  0  0  0  0
   -3.4657   -4.1156    0.0000 C   0  0  0  0  0  0  0  0  0
   -3.2690   -4.9168    0.0000 C   0  0  0  0  0  0  0  0  0
   -3.8646   -5.4877    0.0000 C   0  0  0  0  0  0  0  0  0
   -4.6568   -5.2574    0.0000 C   0  0  0  0  0  0  0  0  0
   -4.8534   -4.4562    0.0000 C   0  0  0  0  0  0  0  0  0
   -4.2579   -3.8853    0.0000 C   0  0  0  0  0  0  0  0  0
   -4.4545   -3.0841    0.0000 C   0  0  0  0  0  0  0  0  0
   -3.8589   -2.5132    0.0000 N   0  0  0  0  0  0  0  0  0
   -4.0556   -1.7119    0.0000 C   0  0  0  0  0  0  0  0  0
   -3.4600   -1.1410    0.0000 C   0  0  0  0  0  0  0  0  0
   -3.6567   -0.3398    0.0000 N   0  0  0  0  0  0  0  0  0
   -3.1241    0.2902    0.0000 C   0  0  0  0  0  0  0  0  0
   -2.2995    0.3160    0.0000 C   0  0  0  0  0  0  0  0  0
   -1.9095    1.0430    0.0000 C   0  0  0  0  0  0  0  0  0
   -1.0849    1.0688    0.0000 N   0  0  0  0  0  0  0  0  0
   -0.6503    0.3675    0.0000 C   0  0  0  0  0  0  0  0  0
   -1.0403   -0.3595    0.0000 C   0  0  0  0  0  0  0  0  0
   -1.8648   -0.3852    0.0000 C   0  0  0  0  0  0  0  0  0
   -2.3441    1.7442    0.0000 C   0  0  0  0  0  0  0  0  0
   -3.1687    1.7185    0.0000 C   0  0  0  0  0  0  0  0  0
   -3.5587    0.9915    0.0000 C   0  0  0  0  0  0  0  0  0
   -4.3599    0.7948    0.0000 C   0  0  0  0  0  0  0  0  0
   -4.4205   -0.0279    0.0000 C   0  0  0  0  0  0  0  0  0
   -4.8478   -1.4816    0.0000 C   0  0  0  0  0  0  0  0  0
  1  2  1  0  0  0  0
  2  3  4  0  0  0  0
  2  7  4  0  0  0  0
  3  4  4  0  0  0  0
  4  5  4  0  0  0  0
  5  6  4  0  0  0  0
  6  7  4  0  0  0  0
  7  8  1  0  0  0  0
  8  9  1  0  0  0  0
  9 10  1  0  0  0  0
 10 11  1  0  0  0  0
 10 25  1  0  0  0  0
 11 12  1  0  0  0  0
 12 13  4  0  0  0  0
 12 24  4  0  0  0  0
 13 14  4  0  0  0  0
 13 22  4  0  0  0  0
 14 15  4  0  0  0  0
 14 19  4  0  0  0  0
 15 16  4  0  0  0  0
 15 20  4  0  0  0  0
 16 17  4  0  0  0  0
 17 18  4  0  0  0  0
 18 19  4  0  0  0  0
 20 21  4  0  0  0  0
 21 22  4  0  0  0  0
 22 23  4  0  0  0  0
 23 24  4  0  0  0  0
M  END
>  <Name_Molregno>
338482

>  <5-HT2A>
6.17

>  <5-HT2C>
7.41

$$$$
338610
  Marvin  02231216192D 0   1.00000     0.00000     0

 17 19  0  0  1  0  0  0  0  0999 V2000
    0.0861   -0.0374    0.0000 N   0  0  0  0  0  0  0  0  0
   -0.7385   -0.0632    0.0000 C   0  0  0  0  0  0  0  0  0
   -1.1285   -0.7902    0.0000 C   0  0  0  0  0  0  0  0  0
   -1.9531   -0.8160    0.0000 C   0  0  0  0  0  0  0  0  0
   -2.4857   -1.4460    0.0000 N   0  0  0  0  0  0  0  0  0
   -3.2495   -1.1342    0.0000 C   0  0  0  0  0  0  0  0  0
   -3.1889   -0.3114    0.0000 C   0  0  0  0  0  0  0  0  0
   -2.3877   -0.1147    0.0000 C   0  0  0  0  0  0  0  0  0
   -1.9977    0.6123    0.0000 C   0  0  0  0  0  0  0  0  0
   -1.1731    0.6380    0.0000 C   0  0  0  0  0  0  0  0  0
   -2.2890   -2.2472    0.0000 C   0  0  0  0  0  0  0  0  0
   -2.8846   -2.8181    0.0000 C   0  0  0  0  0  0  0  0  0
   -2.6879   -3.6194    0.0000 N   0  0  0  0  0  0  0  0  0
   -3.6768   -2.5878    0.0000 C   0  0  0  0  0  0  0  0  0
   -0.6938   -1.4915    0.0000 C   0  0  0  0  0  0  0  0  0
    0.1308   -1.4657    0.0000 C   0  0  0  0  0  0  0  0  0
    0.5207   -0.7387    0.0000 C   0  0  0  0  0  0  0  0  0
  1  2  4  0  0  0  0
  1 17  4  0  0  0  0
  2  3  4  0  0  0  0
  2 10  4  0  0  0  0
  3  4  4  0  0  0  0
  3 15  4  0  0  0  0
  4  5  4  0  0  0  0
  4  8  4  0  0  0  0
  5  6  4  0  0  0  0
  5 11  1  0  0  0  0
  6  7  4  0  0  0  0
  7  8  4  0  0  0  0
  8  9  4  0  0  0  0
  9 10  4  0  0  0  0
 11 12  1  0  0  0  0
 12 13  1  0  0  0  0
 12 14  1  0  0  0  0
 15 16  4  0  0  0  0
 16 17  4  0  0  0  0
M  END
>  <Name_Molregno>
338610

>  <5-HT2A>
7.51

>  <5-HT2C>
8.8

$$$$
341020
  Marvin  02231216192D 0   1.00000     0.00000     0

 26 28  0  0  1  0  0  0  0  0999 V2000
   -3.7395   -1.2429    0.0000 S   0  0  0  0  0  0  0  0  0
   -3.5413   -0.4420    0.0000 O   0  0  0  0  0  0  0  0  0
   -3.9376   -2.0437    0.0000 O   0  0  0  0  0  0  0  0  0
   -2.9386   -1.4410    0.0000 C   0  0  0  0  0  0  0  0  0
   -2.1378   -1.6392    0.0000 C   0  0  0  0  0  0  0  0  0
   -1.5658   -1.0447    0.0000 C   0  0  0  0  0  0  0  0  0
   -0.7649   -1.2429    0.0000 C   0  0  0  0  0  0  0  0  0
   -0.1929   -0.6484    0.0000 N   0  0  0  0  0  0  0  0  0
   -0.4217    0.1442    0.0000 C   0  0  0  0  0  0  0  0  0
    0.1504    0.7387    0.0000 C   0  0  0  0  0  0  0  0  0
    0.9512    0.5405    0.0000 C   0  0  0  0  0  0  0  0  0
    1.1800   -0.2521    0.0000 C   0  0  0  0  0  0  0  0  0
    0.6080   -0.8466    0.0000 C   0  0  0  0  0  0  0  0  0
   -0.0785    1.5313    0.0000 C   0  0  0  0  0  0  0  0  0
   -0.8542    1.8121    0.0000 O   0  0  0  0  0  0  0  0  0
   -0.8269    2.6367    0.0000 C   0  0  0  0  0  0  0  0  0
   -0.0343    2.8655    0.0000 N   0  0  0  0  0  0  0  0  0
    0.4283    2.1824    0.0000 C   0  0  0  0  0  0  0  0  0
   -2.7405   -0.6402    0.0000 C   0  0  0  0  0  0  0  0  0
   -3.1368   -2.2419    0.0000 C   0  0  0  0  0  0  0  0  0
   -4.5403   -1.0447    0.0000 C   0  0  0  0  0  0  0  0  0
   -5.1124   -1.6392    0.0000 C   0  0  0  0  0  0  0  0  0
   -5.9132   -1.4410    0.0000 C   0  0  0  0  0  0  0  0  0
   -6.1420   -0.6484    0.0000 C   0  0  0  0  0  0  0  0  0
   -5.5700   -0.0539    0.0000 C   0  0  0  0  0  0  0  0  0
   -4.7691   -0.2521    0.0000 C   0  0  0  0  0  0  0  0  0
  1  2  2  0  0  0  0
  1  3  2  0  0  0  0
  1  4  1  0  0  0  0
  1 21  1  0  0  0  0
  4  5  1  0  0  0  0
  4 19  1  0  0  0  0
  4 20  1  0  0  0  0
  5  6  1  0  0  0  0
  6  7  1  0  0  0  0
  7  8  1  0  0  0  0
  8  9  1  0  0  0  0
  8 13  1  0  0  0  0
  9 10  1  0  0  0  0
 10 11  1  0  0  0  0
 10 14  1  0  0  0  0
 11 12  1  0  0  0  0
 12 13  1  0  0  0  0
 14 15  4  0  0  0  0
 14 18  4  0  0  0  0
 15 16  4  0  0  0  0
 16 17  4  0  0  0  0
 17 18  4  0  0  0  0
 21 22  4  0  0  0  0
 21 26  4  0  0  0  0
 22 23  4  0  0  0  0
 23 24  4  0  0  0  0
 24 25  4  0  0  0  0
 25 26  4  0  0  0  0
M  END
>  <Name_Molregno>
341020

>  <5-HT1A>
5.15

>  <5-HT1B>
5.3

>  <5-HT2A>
6

>  <5-HT7>
7.82

>  <DOPAMINE D2>
5.82

$$$$
341385
  Marvin  02231216192D 0   1.00000     0.00000     0

 27 29  0  0  1  0  0  0  0  0999 V2000
   -3.9769   -1.3635    0.0000 S   0  0  0  0  0  0  0  0  0
   -3.7787   -0.5626    0.0000 O   0  0  0  0  0  0  0  0  0
   -4.1750   -2.1643    0.0000 O   0  0  0  0  0  0  0  0  0
   -3.1760   -1.5616    0.0000 C   0  0  0  0  0  0  0  0  0
   -2.3752   -1.7598    0.0000 C   0  0  0  0  0  0  0  0  0
   -1.8031   -1.1653    0.0000 C   0  0  0  0  0  0  0  0  0
   -1.0023   -1.3635    0.0000 C   0  0  0  0  0  0  0  0  0
   -0.4302   -0.7690    0.0000 N   0  0  0  0  0  0  0  0  0
   -0.6591    0.0237    0.0000 C   0  0  0  0  0  0  0  0  0
   -0.0870    0.6181    0.0000 C   0  0  0  0  0  0  0  0  0
    0.7138    0.4200    0.0000 C   0  0  0  0  0  0  0  0  0
    0.9426   -0.3727    0.0000 C   0  0  0  0  0  0  0  0  0
    0.3706   -0.9671    0.0000 C   0  0  0  0  0  0  0  0  0
   -0.3158    1.4108    0.0000 C   0  0  0  0  0  0  0  0  0
   -1.1167    1.6089    0.0000 C   0  0  0  0  0  0  0  0  0
   -1.3455    2.4016    0.0000 C   0  0  0  0  0  0  0  0  0
   -0.7735    2.9960    0.0000 C   0  0  0  0  0  0  0  0  0
    0.0274    2.7979    0.0000 C   0  0  0  0  0  0  0  0  0
    0.2562    2.0052    0.0000 C   0  0  0  0  0  0  0  0  0
   -2.9778   -0.7608    0.0000 C   0  0  0  0  0  0  0  0  0
   -3.3742   -2.3625    0.0000 C   0  0  0  0  0  0  0  0  0
   -4.7777   -1.1653    0.0000 C   0  0  0  0  0  0  0  0  0
   -5.3497   -1.7598    0.0000 C   0  0  0  0  0  0  0  0  0
   -6.1506   -1.5616    0.0000 C   0  0  0  0  0  0  0  0  0
   -6.3794   -0.7690    0.0000 C   0  0  0  0  0  0  0  0  0
   -5.8074   -0.1745    0.0000 C   0  0  0  0  0  0  0  0  0
   -5.0065   -0.3727    0.0000 C   0  0  0  0  0  0  0  0  0
  1  2  2  0  0  0  0
  1  3  2  0  0  0  0
  1  4  1  0  0  0  0
  1 22  1  0  0  0  0
  4  5  1  0  0  0  0
  4 20  1  0  0  0  0
  4 21  1  0  0  0  0
  5  6  1  0  0  0  0
  6  7  1  0  0  0  0
  7  8  1  0  0  0  0
  8  9  1  0  0  0  0
  8 13  1  0  0  0  0
  9 10  1  0  0  0  0
 10 11  1  0  0  0  0
 10 14  1  0  0  0  0
 11 12  1  0  0  0  0
 12 13  1  0  0  0  0
 14 15  4  0  0  0  0
 14 19  4  0  0  0  0
 15 16  4  0  0  0  0
 16 17  4  0  0  0  0
 17 18  4  0  0  0  0
 18 19  4  0  0  0  0
 22 23  4  0  0  0  0
 22 27  4  0  0  0  0
 23 24  4  0  0  0  0
 24 25  4  0  0  0  0
 25 26  4  0  0  0  0
 26 27  4  0  0  0  0
M  END
>  <Name_Molregno>
341385

>  <5-HT1A>
6.4

>  <5-HT1B>
5.11

>  <5-HT2A>
5.74

>  <5-HT7>
8.15

>  <DOPAMINE D2>
6.66

$$$$
341432
  Marvin  02231216192D 0   1.00000     0.00000     0

 26 29  0  0  0  0  0  0  0  0999 V2000
    0.8212    1.5345    0.0000 S   0  0  0  0  0  0  0  0  0
    0.8212    0.7095    0.0000 O   0  0  0  0  0  0  0  0  0
    0.8212    2.3595    0.0000 O   0  0  0  0  0  0  0  0  0
   -0.0038    1.5345    0.0000 C   0  0  0  0  0  0  0  0  0
   -0.8288    1.5345    0.0000 C   0  0  0  0  0  0  0  0  0
   -0.8288    2.3595    0.0000 C   0  0  0  0  0  0  0  0  0
   -0.0038    2.3595    0.0000 C   0  0  0  0  0  0  0  0  0
   -0.0038    0.7095    0.0000 C   0  0  0  0  0  0  0  0  0
    0.7107    0.2970    0.0000 C   0  0  0  0  0  0  0  0  0
    0.7107   -0.5280    0.0000 C   0  0  0  0  0  0  0  0  0
    1.4252   -0.9405    0.0000 N   0  0  0  0  0  0  0  0  0
    1.4252   -1.7655    0.0000 C   0  0  0  0  0  0  0  0  0
    2.1396   -2.1780    0.0000 C   0  0  0  0  0  0  0  0  0
    2.8541   -1.7655    0.0000 C   0  0  0  0  0  0  0  0  0
    2.8541   -0.9405    0.0000 C   0  0  0  0  0  0  0  0  0
    2.1396   -0.5280    0.0000 C   0  0  0  0  0  0  0  0  0
    3.5686   -0.5280    0.0000 C   0  0  0  0  0  0  0  0  0
    4.2830   -0.9405    0.0000 C   0  0  0  0  0  0  0  0  0
    4.2830   -1.7655    0.0000 C   0  0  0  0  0  0  0  0  0
    3.5686   -2.1780    0.0000 C   0  0  0  0  0  0  0  0  0
    1.6462    1.5345    0.0000 C   0  0  0  0  0  0  0  0  0
    2.0587    2.2490    0.0000 C   0  0  0  0  0  0  0  0  0
    2.8837    2.2490    0.0000 C   0  0  0  0  0  0  0  0  0
    3.2962    1.5345    0.0000 C   0  0  0  0  0  0  0  0  0
    2.8837    0.8200    0.0000 C   0  0  0  0  0  0  0  0  0
    2.0587    0.8200    0.0000 C   0  0  0  0  0  0  0  0  0
  1  2  2  0  0  0  0
  1  3  2  0  0  0  0
  1  4  1  0  0  0  0
  1 21  1  0  0  0  0
  4  5  1  0  0  0  0
  4  7  1  0  0  0  0
  4  8  1  0  0  0  0
  5  6  1  0  0  0  0
  6  7  1  0  0  0  0
  8  9  1  0  0  0  0
  9 10  1  0  0  0  0
 10 11  1  0  0  0  0
 11 12  1  0  0  0  0
 11 16  1  0  0  0  0
 12 13  1  0  0  0  0
 13 14  1  0  0  0  0
 14 15  4  0  0  0  0
 14 20  4  0  0  0  0
 15 16  1  0  0  0  0
 15 17  4  0  0  0  0
 17 18  4  0  0  0  0
 18 19  4  0  0  0  0
 19 20  4  0  0  0  0
 21 22  4  0  0  0  0
 21 26  4  0  0  0  0
 22 23  4  0  0  0  0
 23 24  4  0  0  0  0
 24 25  4  0  0  0  0
 25 26  4  0  0  0  0
M  END
>  <Name_Molregno>
341432

>  <5-HT1A>
7.46

>  <5-HT2A>
7.19

>  <5-HT7>
8.1

$$$$
341446
  Marvin  02231216192D 0   1.00000     0.00000     0

 25 26  0  0  1  0  0  0  0  0999 V2000
   -3.4458   -1.1233    0.0000 S   0  0  0  0  0  0  0  0  0
   -3.2476   -0.3224    0.0000 O   0  0  0  0  0  0  0  0  0
   -3.6439   -1.9241    0.0000 O   0  0  0  0  0  0  0  0  0
   -2.6449   -1.3214    0.0000 C   0  0  0  0  0  0  0  0  0
   -1.8441   -1.5196    0.0000 C   0  0  0  0  0  0  0  0  0
   -1.2721   -0.9251    0.0000 C   0  0  0  0  0  0  0  0  0
   -0.4712   -1.1233    0.0000 C   0  0  0  0  0  0  0  0  0
    0.1008   -0.5288    0.0000 N   0  0  0  0  0  0  0  0  0
   -0.1280    0.2638    0.0000 C   0  0  0  0  0  0  0  0  0
    0.4441    0.8583    0.0000 C   0  0  0  0  0  0  0  0  0
    1.2449    0.6601    0.0000 C   0  0  0  0  0  0  0  0  0
    1.4737   -0.1325    0.0000 C   0  0  0  0  0  0  0  0  0
    0.9017   -0.7270    0.0000 C   0  0  0  0  0  0  0  0  0
    0.2152    1.6509    0.0000 C   0  0  0  0  0  0  0  0  0
   -0.0136    2.4436    0.0000 F   0  0  0  0  0  0  0  0  0
   -0.5774    1.4221    0.0000 F   0  0  0  0  0  0  0  0  0
    1.0079    1.8797    0.0000 F   0  0  0  0  0  0  0  0  0
   -2.4468   -0.5206    0.0000 C   0  0  0  0  0  0  0  0  0
   -2.8431   -2.1223    0.0000 C   0  0  0  0  0  0  0  0  0
   -4.2466   -0.9251    0.0000 C   0  0  0  0  0  0  0  0  0
   -4.8187   -1.5196    0.0000 C   0  0  0  0  0  0  0  0  0
   -5.6195   -1.3214    0.0000 C   0  0  0  0  0  0  0  0  0
   -5.8483   -0.5288    0.0000 C   0  0  0  0  0  0  0  0  0
   -5.2763    0.0657    0.0000 C   0  0  0  0  0  0  0  0  0
   -4.4754   -0.1325    0.0000 C   0  0  0  0  0  0  0  0  0
  1  2  2  0  0  0  0
  1  3  2  0  0  0  0
  1  4  1  0  0  0  0
  1 20  1  0  0  0  0
  4  5  1  0  0  0  0
  4 18  1  0  0  0  0
  4 19  1  0  0  0  0
  5  6  1  0  0  0  0
  6  7  1  0  0  0  0
  7  8  1  0  0  0  0
  8  9  1  0  0  0  0
  8 13  1  0  0  0  0
  9 10  1  0  0  0  0
 10 11  1  0  0  0  0
 10 14  1  0  0  0  0
 11 12  1  0  0  0  0
 12 13  1  0  0  0  0
 14 15  1  0  0  0  0
 14 16  1  0  0  0  0
 14 17  1  0  0  0  0
 20 21  4  0  0  0  0
 20 25  4  0  0  0  0
 21 22  4  0  0  0  0
 22 23  4  0  0  0  0
 23 24  4  0  0  0  0
 24 25  4  0  0  0  0
M  END
>  <Name_Molregno>
341446

>  <5-HT1A>
5.15

>  <5-HT1B>
5.15

>  <5-HT2A>
5.7

>  <5-HT7>
7.27

>  <DOPAMINE D2>
6

$$$$
341469
  Marvin  02231216192D 0   1.00000     0.00000     0

 26 27  0  0  1  0  0  0  0  0999 V2000
    0.2162    0.0185    0.0000 S   0  0  0  0  0  0  0  0  0
   -0.3239    0.6422    0.0000 O   0  0  0  0  0  0  0  0  0
    0.7563   -0.6051    0.0000 O   0  0  0  0  0  0  0  0  0
    0.8399    0.5586    0.0000 C   0  0  0  0  0  0  0  0  0
    1.4635    1.0987    0.0000 C   0  0  0  0  0  0  0  0  0
    2.2431    0.8287    0.0000 C   0  0  0  0  0  0  0  0  0
    2.3990    0.0185    0.0000 C   0  0  0  0  0  0  0  0  0
    3.1785   -0.2515    0.0000 N   0  0  0  0  0  0  0  0  0
    3.8022    0.2886    0.0000 C   0  0  0  0  0  0  0  0  0
    4.5817    0.0185    0.0000 C   0  0  0  0  0  0  0  0  0
    4.7376   -0.7916    0.0000 C   0  0  0  0  0  0  0  0  0
    4.1140   -1.3317    0.0000 C   0  0  0  0  0  0  0  0  0
    3.3344   -1.0616    0.0000 C   0  0  0  0  0  0  0  0  0
    5.2054    0.5586    0.0000 C   0  0  0  0  0  0  0  0  0
    5.9849    0.2886    0.0000 O   0  0  0  0  0  0  0  0  0
    6.6086    0.8287    0.0000 C   0  0  0  0  0  0  0  0  0
    7.3881    0.5586    0.0000 C   0  0  0  0  0  0  0  0  0
    5.0494    1.3688    0.0000 O   0  0  0  0  0  0  0  0  0
    0.2998    1.1823    0.0000 C   0  0  0  0  0  0  0  0  0
    1.3800   -0.0650    0.0000 C   0  0  0  0  0  0  0  0  0
   -0.4074   -0.5215    0.0000 C   0  0  0  0  0  0  0  0  0
   -0.2515   -1.3317    0.0000 C   0  0  0  0  0  0  0  0  0
   -0.8751   -1.8718    0.0000 C   0  0  0  0  0  0  0  0  0
   -1.6547   -1.6017    0.0000 C   0  0  0  0  0  0  0  0  0
   -1.8106   -0.7916    0.0000 C   0  0  0  0  0  0  0  0  0
   -1.1870   -0.2515    0.0000 C   0  0  0  0  0  0  0  0  0
  1  2  2  0  0  0  0
  1  3  2  0  0  0  0
  1  4  1  0  0  0  0
  1 21  1  0  0  0  0
  4  5  1  0  0  0  0
  4 19  1  0  0  0  0
  4 20  1  0  0  0  0
  5  6  1  0  0  0  0
  6  7  1  0  0  0  0
  7  8  1  0  0  0  0
  8  9  1  0  0  0  0
  8 13  1  0  0  0  0
  9 10  1  0  0  0  0
 10 11  1  0  0  0  0
 10 14  1  0  0  0  0
 11 12  1  0  0  0  0
 12 13  1  0  0  0  0
 14 15  1  0  0  0  0
 14 18  2  0  0  0  0
 15 16  1  0  0  0  0
 16 17  1  0  0  0  0
 21 22  4  0  0  0  0
 21 26  4  0  0  0  0
 22 23  4  0  0  0  0
 23 24  4  0  0  0  0
 24 25  4  0  0  0  0
 25 26  4  0  0  0  0
M  END
>  <Name_Molregno>
341469

>  <5-HT1A>
5.62

>  <5-HT1B>
5.15

>  <5-HT2A>
5.73

>  <5-HT7>
6.98

>  <DOPAMINE D2>
6.15

$$$$
341518
  Marvin  02231216192D 0   1.00000     0.00000     0

 25 27  0  0  1  0  0  0  0  0999 V2000
   -3.8526   -0.6700    0.0000 S   0  0  0  0  0  0  0  0  0
   -3.6545    0.1308    0.0000 O   0  0  0  0  0  0  0  0  0
   -4.0508   -1.4709    0.0000 O   0  0  0  0  0  0  0  0  0
   -3.0518   -0.8682    0.0000 C   0  0  0  0  0  0  0  0  0
   -2.2509   -1.0663    0.0000 C   0  0  0  0  0  0  0  0  0
   -1.6789   -0.4719    0.0000 C   0  0  0  0  0  0  0  0  0
   -0.8780   -0.6700    0.0000 C   0  0  0  0  0  0  0  0  0
   -0.3060   -0.0756    0.0000 N   0  0  0  0  0  0  0  0  0
    0.4948   -0.2737    0.0000 C   0  0  0  0  0  0  0  0  0
    1.0669    0.3208    0.0000 C   0  0  0  0  0  0  0  0  0
    0.8381    1.1134    0.0000 C   0  0  0  0  0  0  0  0  0
    1.4101    1.7079    0.0000 C   0  0  0  0  0  0  0  0  0
    2.2109    1.5097    0.0000 C   0  0  0  0  0  0  0  0  0
    2.4398    0.7171    0.0000 C   0  0  0  0  0  0  0  0  0
    1.8677    0.1226    0.0000 C   0  0  0  0  0  0  0  0  0
    0.0372    1.3116    0.0000 C   0  0  0  0  0  0  0  0  0
   -0.5348    0.7171    0.0000 C   0  0  0  0  0  0  0  0  0
   -2.8536   -0.0673    0.0000 C   0  0  0  0  0  0  0  0  0
   -3.2499   -1.6690    0.0000 C   0  0  0  0  0  0  0  0  0
   -4.6535   -0.4719    0.0000 C   0  0  0  0  0  0  0  0  0
   -5.2255   -1.0663    0.0000 C   0  0  0  0  0  0  0  0  0
   -6.0263   -0.8682    0.0000 C   0  0  0  0  0  0  0  0  0
   -6.2552   -0.0756    0.0000 C   0  0  0  0  0  0  0  0  0
   -5.6831    0.5189    0.0000 C   0  0  0  0  0  0  0  0  0
   -4.8823    0.3208    0.0000 C   0  0  0  0  0  0  0  0  0
  1  2  2  0  0  0  0
  1  3  2  0  0  0  0
  1  4  1  0  0  0  0
  1 20  1  0  0  0  0
  4  5  1  0  0  0  0
  4 18  1  0  0  0  0
  4 19  1  0  0  0  0
  5  6  1  0  0  0  0
  6  7  1  0  0  0  0
  7  8  1  0  0  0  0
  8  9  1  0  0  0  0
  8 17  1  0  0  0  0
  9 10  1  0  0  0  0
 10 11  1  0  0  0  0
 10 15  1  0  0  0  0
 11 12  1  0  0  0  0
 11 16  1  0  0  0  0
 12 13  1  0  0  0  0
 13 14  1  0  0  0  0
 14 15  1  0  0  0  0
 16 17  1  0  0  0  0
 20 21  4  0  0  0  0
 20 25  4  0  0  0  0
 21 22  4  0  0  0  0
 22 23  4  0  0  0  0
 23 24  4  0  0  0  0
 24 25  4  0  0  0  0
M  END
>  <Name_Molregno>
341518

>  <5-HT1A>
5.82

>  <5-HT1B>
5.15

>  <5-HT2A>
5.7

>  <5-HT7>
8.1

>  <DOPAMINE D2>
6.05

$$$$
341823
  Marvin  02231216192D 0   1.00000     0.00000     0

 26 29  0  0  1  0  0  0  0  0999 V2000
    0.1056    0.3624    0.0000 S   0  0  0  0  0  0  0  0  0
    0.8201   -0.0501    0.0000 O   0  0  0  0  0  0  0  0  0
   -0.6089    0.7749    0.0000 O   0  0  0  0  0  0  0  0  0
   -0.3069   -0.3520    0.0000 C   0  0  0  0  0  0  0  0  0
   -0.7194   -1.0665    0.0000 C   0  0  0  0  0  0  0  0  0
   -1.4339   -0.6540    0.0000 C   0  0  0  0  0  0  0  0  0
   -1.0214    0.0605    0.0000 C   0  0  0  0  0  0  0  0  0
    0.4076   -0.7645    0.0000 C   0  0  0  0  0  0  0  0  0
    1.1221   -0.3520    0.0000 C   0  0  0  0  0  0  0  0  0
    1.8365   -0.7645    0.0000 C   0  0  0  0  0  0  0  0  0
    2.5510   -0.3520    0.0000 N   0  0  0  0  0  0  0  0  0
    3.2655   -0.7645    0.0000 C   0  0  0  0  0  0  0  0  0
    3.9799   -0.3520    0.0000 C   0  0  0  0  0  0  0  0  0
    3.9799    0.4730    0.0000 C   0  0  0  0  0  0  0  0  0
    4.6944    0.8855    0.0000 C   0  0  0  0  0  0  0  0  0
    5.4089    0.4730    0.0000 C   0  0  0  0  0  0  0  0  0
    5.4089   -0.3520    0.0000 C   0  0  0  0  0  0  0  0  0
    4.6944   -0.7645    0.0000 C   0  0  0  0  0  0  0  0  0
    3.2655    0.8855    0.0000 C   0  0  0  0  0  0  0  0  0
    2.5510    0.4730    0.0000 C   0  0  0  0  0  0  0  0  0
    0.5181    1.0769    0.0000 C   0  0  0  0  0  0  0  0  0
    0.1056    1.7914    0.0000 C   0  0  0  0  0  0  0  0  0
    0.5181    2.5058    0.0000 C   0  0  0  0  0  0  0  0  0
    1.3431    2.5058    0.0000 C   0  0  0  0  0  0  0  0  0
    1.7556    1.7914    0.0000 C   0  0  0  0  0  0  0  0  0
    1.3431    1.0769    0.0000 C   0  0  0  0  0  0  0  0  0
  1  2  2  0  0  0  0
  1  3  2  0  0  0  0
  1  4  1  0  0  0  0
  1 21  1  0  0  0  0
  4  5  1  0  0  0  0
  4  7  1  0  0  0  0
  4  8  1  0  0  0  0
  5  6  1  0  0  0  0
  6  7  1  0  0  0  0
  8  9  1  0  0  0  0
  9 10  1  0  0  0  0
 10 11  1  0  0  0  0
 11 12  1  0  0  0  0
 11 20  1  0  0  0  0
 12 13  1  0  0  0  0
 13 14  1  0  0  0  0
 13 18  1  0  0  0  0
 14 15  1  0  0  0  0
 14 19  1  0  0  0  0
 15 16  1  0  0  0  0
 16 17  1  0  0  0  0
 17 18  1  0  0  0  0
 19 20  1  0  0  0  0
 21 22  4  0  0  0  0
 21 26  4  0  0  0  0
 22 23  4  0  0  0  0
 23 24  4  0  0  0  0
 24 25  4  0  0  0  0
 25 26  4  0  0  0  0
M  END
>  <Name_Molregno>
341823

>  <5-HT1A>
6.68

>  <5-HT2A>
6.24

>  <5-HT7>
8.22

$$$$
341932
  Marvin  02231216192D 0   1.00000     0.00000     0

 15 17  0  0  1  0  0  0  0  0999 V2000
    0.1702   -1.4880    0.0000 Cl  0  0  0  0  0  0  0  0  0
    0.7222   -0.8749    0.0000 C   0  0  0  0  0  0  0  0  0
    1.5292   -1.0464    0.0000 N   0  0  0  0  0  0  0  0  0
    2.0812   -0.4333    0.0000 C   0  0  0  0  0  0  0  0  0
    2.9062   -0.4333    0.0000 N   0  0  0  0  0  0  0  0  0
    3.1611    0.3513    0.0000 C   0  0  0  0  0  0  0  0  0
    2.4937    0.8362    0.0000 C   0  0  0  0  0  0  0  0  0
    1.8263    0.3513    0.0000 C   0  0  0  0  0  0  0  0  0
    1.0193    0.5229    0.0000 C   0  0  0  0  0  0  0  0  0
    0.4673   -0.0902    0.0000 C   0  0  0  0  0  0  0  0  0
    3.9681    0.5229    0.0000 C   0  0  0  0  0  0  0  0  0
    4.5201   -0.0902    0.0000 N   0  0  0  0  0  0  0  0  0
    4.2652   -0.8749    0.0000 C   0  0  0  0  0  0  0  0  0
    3.4582   -1.0464    0.0000 C   0  0  0  0  0  0  0  0  0
    3.2033   -1.8310    0.0000 C   0  0  0  0  0  0  0  0  0
  1  2  1  0  0  0  0
  2  3  4  0  0  0  0
  2 10  4  0  0  0  0
  3  4  4  0  0  0  0
  4  5  1  0  0  0  0
  4  8  4  0  0  0  0
  5  6  1  0  0  0  0
  5 14  1  0  0  0  0
  6  7  1  0  0  0  0
  6 11  1  0  0  0  0
  7  8  1  0  0  0  0
  8  9  4  0  0  0  0
  9 10  4  0  0  0  0
 11 12  1  0  0  0  0
 12 13  1  0  0  0  0
 13 14  1  0  0  0  0
 14 15  1  0  0  0  0
M  END
>  <Name_Molregno>
341932

>  <5-HT2A>
7.33

>  <5-HT2C>
8.04

$$$$
342068
  Marvin  02231216192D 0   1.00000     0.00000     0

 16 18  0  0  1  0  0  0  0  0999 V2000
   -4.2214   -0.6834    0.0000 O   0  0  0  0  0  0  0  0  0
   -5.0283   -0.5119    0.0000 C   0  0  0  0  0  0  0  0  0
   -3.6693   -0.0703    0.0000 C   0  0  0  0  0  0  0  0  0
   -2.8624   -0.2419    0.0000 N   0  0  0  0  0  0  0  0  0
   -2.3103    0.3712    0.0000 C   0  0  0  0  0  0  0  0  0
   -1.4853    0.3712    0.0000 N   0  0  0  0  0  0  0  0  0
   -1.2304    1.1558    0.0000 C   0  0  0  0  0  0  0  0  0
   -1.8978    1.6408    0.0000 C   0  0  0  0  0  0  0  0  0
   -2.5653    1.1558    0.0000 C   0  0  0  0  0  0  0  0  0
   -3.3722    1.3274    0.0000 C   0  0  0  0  0  0  0  0  0
   -3.9243    0.7143    0.0000 C   0  0  0  0  0  0  0  0  0
   -0.4234    1.3274    0.0000 C   0  0  0  0  0  0  0  0  0
    0.1286    0.7143    0.0000 N   0  0  0  0  0  0  0  0  0
   -0.1263   -0.0703    0.0000 C   0  0  0  0  0  0  0  0  0
   -0.9333   -0.2419    0.0000 C   0  0  0  0  0  0  0  0  0
   -1.1882   -1.0265    0.0000 C   0  0  0  0  0  0  0  0  0
  1  2  1  0  0  0  0
  1  3  1  0  0  0  0
  3  4  4  0  0  0  0
  3 11  4  0  0  0  0
  4  5  4  0  0  0  0
  5  6  1  0  0  0  0
  5  9  4  0  0  0  0
  6  7  1  0  0  0  0
  6 15  1  0  0  0  0
  7  8  1  0  0  0  0
  7 12  1  0  0  0  0
  8  9  1  0  0  0  0
  9 10  4  0  0  0  0
 10 11  4  0  0  0  0
 12 13  1  0  0  0  0
 13 14  1  0  0  0  0
 14 15  1  0  0  0  0
 15 16  1  0  0  0  0
M  END
>  <Name_Molregno>
342068

>  <5-HT2A>
6.29

>  <5-HT2C>
6.98

$$$$
342069
  Marvin  02231216192D 0   1.00000     0.00000     0

 15 17  0  0  1  0  0  0  0  0999 V2000
   -1.8512   -0.3029    0.0000 N   0  0  0  0  0  0  0  0  0
   -1.2992    0.3102    0.0000 C   0  0  0  0  0  0  0  0  0
   -0.4742    0.3102    0.0000 N   0  0  0  0  0  0  0  0  0
   -0.2192    1.0948    0.0000 C   0  0  0  0  0  0  0  0  0
   -0.8867    1.5797    0.0000 C   0  0  0  0  0  0  0  0  0
   -1.5541    1.0948    0.0000 C   0  0  0  0  0  0  0  0  0
   -2.3611    1.2664    0.0000 C   0  0  0  0  0  0  0  0  0
   -2.9131    0.6533    0.0000 C   0  0  0  0  0  0  0  0  0
   -2.6582   -0.1314    0.0000 C   0  0  0  0  0  0  0  0  0
   -3.2102   -0.7445    0.0000 C   0  0  0  0  0  0  0  0  0
    0.5878    1.2664    0.0000 C   0  0  0  0  0  0  0  0  0
    1.1398    0.6533    0.0000 N   0  0  0  0  0  0  0  0  0
    0.8849   -0.1314    0.0000 C   0  0  0  0  0  0  0  0  0
    0.0779   -0.3029    0.0000 C   0  0  0  0  0  0  0  0  0
   -0.1771   -1.0875    0.0000 C   0  0  0  0  0  0  0  0  0
  1  2  4  0  0  0  0
  1  9  4  0  0  0  0
  2  3  1  0  0  0  0
  2  6  4  0  0  0  0
  3  4  1  0  0  0  0
  3 14  1  0  0  0  0
  4  5  1  0  0  0  0
  4 11  1  0  0  0  0
  5  6  1  0  0  0  0
  6  7  4  0  0  0  0
  7  8  4  0  0  0  0
  8  9  4  0  0  0  0
  9 10  1  0  0  0  0
 11 12  1  0  0  0  0
 12 13  1  0  0  0  0
 13 14  1  0  0  0  0
 14 15  1  0  0  0  0
M  END
>  <Name_Molregno>
342069

>  <5-HT2A>
6.87

>  <5-HT2C>
8.57

$$$$
342070
  Marvin  02231216192D 0   1.00000     0.00000     0

 18 20  0  0  1  0  0  0  0  0999 V2000
   -3.9180   -2.4826    0.0000 F   0  0  0  0  0  0  0  0  0
   -3.3659   -1.8695    0.0000 C   0  0  0  0  0  0  0  0  0
   -2.7528   -2.4216    0.0000 F   0  0  0  0  0  0  0  0  0
   -3.9790   -1.3175    0.0000 F   0  0  0  0  0  0  0  0  0
   -2.8139   -1.2564    0.0000 C   0  0  0  0  0  0  0  0  0
   -2.0069   -1.4280    0.0000 N   0  0  0  0  0  0  0  0  0
   -1.4549   -0.8149    0.0000 C   0  0  0  0  0  0  0  0  0
   -0.6299   -0.8149    0.0000 N   0  0  0  0  0  0  0  0  0
   -0.3749   -0.0303    0.0000 C   0  0  0  0  0  0  0  0  0
   -1.0424    0.4547    0.0000 C   0  0  0  0  0  0  0  0  0
   -1.7098   -0.0303    0.0000 C   0  0  0  0  0  0  0  0  0
   -2.5168    0.1413    0.0000 C   0  0  0  0  0  0  0  0  0
   -3.0688   -0.4718    0.0000 C   0  0  0  0  0  0  0  0  0
    0.4320    0.1413    0.0000 C   0  0  0  0  0  0  0  0  0
    0.9841   -0.4718    0.0000 N   0  0  0  0  0  0  0  0  0
    0.7291   -1.2564    0.0000 C   0  0  0  0  0  0  0  0  0
   -0.0778   -1.4280    0.0000 C   0  0  0  0  0  0  0  0  0
   -0.3328   -2.2126    0.0000 C   0  0  0  0  0  0  0  0  0
  1  2  1  0  0  0  0
  2  3  1  0  0  0  0
  2  4  1  0  0  0  0
  2  5  1  0  0  0  0
  5  6  4  0  0  0  0
  5 13  4  0  0  0  0
  6  7  4  0  0  0  0
  7  8  1  0  0  0  0
  7 11  4  0  0  0  0
  8  9  1  0  0  0  0
  8 17  1  0  0  0  0
  9 10  1  0  0  0  0
  9 14  1  0  0  0  0
 10 11  1  0  0  0  0
 11 12  4  0  0  0  0
 12 13  4  0  0  0  0
 14 15  1  0  0  0  0
 15 16  1  0  0  0  0
 16 17  1  0  0  0  0
 17 18  1  0  0  0  0
M  END
>  <Name_Molregno>
342070

>  <5-HT2A>
7.37

>  <5-HT2C>
7.85

$$$$
342071
  Marvin  02231216192D 0   1.00000     0.00000     0

 16 18  0  0  1  0  0  0  0  0999 V2000
   -0.3155   -2.3024    0.0000 O   0  0  0  0  0  0  0  0  0
    0.4915   -2.4739    0.0000 C   0  0  0  0  0  0  0  0  0
    1.0436   -1.8608    0.0000 C   0  0  0  0  0  0  0  0  0
    1.8505   -2.0323    0.0000 N   0  0  0  0  0  0  0  0  0
    2.4026   -1.4192    0.0000 C   0  0  0  0  0  0  0  0  0
    3.2276   -1.4192    0.0000 N   0  0  0  0  0  0  0  0  0
    3.4825   -0.6346    0.0000 C   0  0  0  0  0  0  0  0  0
    2.8151   -0.1497    0.0000 C   0  0  0  0  0  0  0  0  0
    2.1476   -0.6346    0.0000 C   0  0  0  0  0  0  0  0  0
    1.3406   -0.4631    0.0000 C   0  0  0  0  0  0  0  0  0
    0.7886   -1.0762    0.0000 C   0  0  0  0  0  0  0  0  0
    4.2895   -0.4631    0.0000 C   0  0  0  0  0  0  0  0  0
    4.8415   -1.0762    0.0000 N   0  0  0  0  0  0  0  0  0
    4.5866   -1.8608    0.0000 C   0  0  0  0  0  0  0  0  0
    3.7796   -2.0323    0.0000 C   0  0  0  0  0  0  0  0  0
    3.5246   -2.8169    0.0000 C   0  0  0  0  0  0  0  0  0
  1  2  1  0  0  0  0
  2  3  1  0  0  0  0
  3  4  4  0  0  0  0
  3 11  4  0  0  0  0
  4  5  4  0  0  0  0
  5  6  1  0  0  0  0
  5  9  4  0  0  0  0
  6  7  1  0  0  0  0
  6 15  1  0  0  0  0
  7  8  1  0  0  0  0
  7 12  1  0  0  0  0
  8  9  1  0  0  0  0
  9 10  4  0  0  0  0
 10 11  4  0  0  0  0
 12 13  1  0  0  0  0
 13 14  1  0  0  0  0
 14 15  1  0  0  0  0
 15 16  1  0  0  0  0
M  END
>  <Name_Molregno>
342071

>  <5-HT2A>
6.03

>  <5-HT2C>
7.27

$$$$
342077
  Marvin  02231216192D 0   1.00000     0.00000     0

 17 19  0  0  1  0  0  0  0  0999 V2000
   -0.2948   -2.1023    0.0000 O   0  0  0  0  0  0  0  0  0
    0.5122   -2.2738    0.0000 C   0  0  0  0  0  0  0  0  0
    1.0642   -1.6607    0.0000 C   0  0  0  0  0  0  0  0  0
    1.8712   -1.8322    0.0000 N   0  0  0  0  0  0  0  0  0
    2.4232   -1.2192    0.0000 C   0  0  0  0  0  0  0  0  0
    3.2482   -1.2192    0.0000 N   0  0  0  0  0  0  0  0  0
    3.5031   -0.4345    0.0000 C   0  0  0  0  0  0  0  0  0
    2.8357    0.0504    0.0000 C   0  0  0  0  0  0  0  0  0
    2.1683   -0.4345    0.0000 C   0  0  0  0  0  0  0  0  0
    1.3613   -0.2630    0.0000 C   0  0  0  0  0  0  0  0  0
    0.8093   -0.8761    0.0000 C   0  0  0  0  0  0  0  0  0
    4.3101   -0.2630    0.0000 C   0  0  0  0  0  0  0  0  0
    4.8621   -0.8761    0.0000 N   0  0  0  0  0  0  0  0  0
    4.6072   -1.6607    0.0000 C   0  0  0  0  0  0  0  0  0
    3.8002   -1.8322    0.0000 C   0  0  0  0  0  0  0  0  0
    3.5453   -2.6169    0.0000 C   0  0  0  0  0  0  0  0  0
   -0.8468   -2.7154    0.0000 C   0  0  0  0  0  0  0  0  0
  1  2  1  0  0  0  0
  1 17  1  0  0  0  0
  2  3  1  0  0  0  0
  3  4  4  0  0  0  0
  3 11  4  0  0  0  0
  4  5  4  0  0  0  0
  5  6  1  0  0  0  0
  5  9  4  0  0  0  0
  6  7  1  0  0  0  0
  6 15  1  0  0  0  0
  7  8  1  0  0  0  0
  7 12  1  0  0  0  0
  8  9  1  0  0  0  0
  9 10  4  0  0  0  0
 10 11  4  0  0  0  0
 12 13  1  0  0  0  0
 13 14  1  0  0  0  0
 14 15  1  0  0  0  0
 15 16  1  0  0  0  0
M  END
>  <Name_Molregno>
342077

>  <5-HT2A>
6.25

>  <5-HT2C>
7.8

$$$$
342130
  Marvin  02231216192D 0   1.00000     0.00000     0

 16 18  0  0  1  0  0  0  0  0999 V2000
   -1.4863   -0.2452    0.0000 N   0  0  0  0  0  0  0  0  0
   -0.9342    0.3679    0.0000 C   0  0  0  0  0  0  0  0  0
   -0.1092    0.3679    0.0000 N   0  0  0  0  0  0  0  0  0
    0.1457    1.1525    0.0000 C   0  0  0  0  0  0  0  0  0
   -0.5217    1.6374    0.0000 C   0  0  0  0  0  0  0  0  0
   -1.1892    1.1525    0.0000 C   0  0  0  0  0  0  0  0  0
   -1.9961    1.3240    0.0000 C   0  0  0  0  0  0  0  0  0
   -2.5482    0.7110    0.0000 C   0  0  0  0  0  0  0  0  0
   -2.2932   -0.0737    0.0000 C   0  0  0  0  0  0  0  0  0
   -2.8453   -0.6868    0.0000 C   0  0  0  0  0  0  0  0  0
   -3.3973   -1.2999    0.0000 N   0  0  0  0  0  0  0  0  0
    0.9527    1.3240    0.0000 C   0  0  0  0  0  0  0  0  0
    1.5047    0.7110    0.0000 N   0  0  0  0  0  0  0  0  0
    1.2498   -0.0737    0.0000 C   0  0  0  0  0  0  0  0  0
    0.4428   -0.2452    0.0000 C   0  0  0  0  0  0  0  0  0
    0.1879   -1.0298    0.0000 C   0  0  0  0  0  0  0  0  0
  1  2  4  0  0  0  0
  1  9  4  0  0  0  0
  2  3  1  0  0  0  0
  2  6  4  0  0  0  0
  3  4  1  0  0  0  0
  3 15  1  0  0  0  0
  4  5  1  0  0  0  0
  4 12  1  0  0  0  0
  5  6  1  0  0  0  0
  6  7  4  0  0  0  0
  7  8  4  0  0  0  0
  8  9  4  0  0  0  0
  9 10  1  0  0  0  0
 10 11  3  0  0  0  0
 12 13  1  0  0  0  0
 13 14  1  0  0  0  0
 14 15  1  0  0  0  0
 15 16  1  0  0  0  0
M  END
>  <Name_Molregno>
342130

>  <5-HT2A>
5.59

>  <5-HT2C>
7.22

$$$$
342514
  Marvin  02231216192D 0   1.00000     0.00000     0

 20 23  0  0  1  0  0  0  0  0999 V2000
   -3.9747   -0.6378    0.0000 O   0  0  0  0  0  0  0  0  0
   -4.5268   -1.2508    0.0000 C   0  0  0  0  0  0  0  0  0
   -5.3338   -1.0793    0.0000 C   0  0  0  0  0  0  0  0  0
   -6.1184   -1.3343    0.0000 C   0  0  0  0  0  0  0  0  0
   -5.9468   -0.5273    0.0000 C   0  0  0  0  0  0  0  0  0
   -3.1678   -0.8093    0.0000 C   0  0  0  0  0  0  0  0  0
   -2.6157   -0.1962    0.0000 C   0  0  0  0  0  0  0  0  0
   -1.8088   -0.3677    0.0000 N   0  0  0  0  0  0  0  0  0
   -1.2567    0.2454    0.0000 C   0  0  0  0  0  0  0  0  0
   -0.4317    0.2454    0.0000 N   0  0  0  0  0  0  0  0  0
   -0.1768    1.0300    0.0000 C   0  0  0  0  0  0  0  0  0
   -0.8442    1.5149    0.0000 C   0  0  0  0  0  0  0  0  0
   -1.5117    1.0300    0.0000 C   0  0  0  0  0  0  0  0  0
   -2.3187    1.2015    0.0000 C   0  0  0  0  0  0  0  0  0
   -2.8707    0.5884    0.0000 C   0  0  0  0  0  0  0  0  0
    0.6302    1.2015    0.0000 C   0  0  0  0  0  0  0  0  0
    1.1822    0.5884    0.0000 N   0  0  0  0  0  0  0  0  0
    0.9273   -0.1962    0.0000 C   0  0  0  0  0  0  0  0  0
    0.1203   -0.3677    0.0000 C   0  0  0  0  0  0  0  0  0
   -0.1346   -1.1523    0.0000 C   0  0  0  0  0  0  0  0  0
  1  2  1  0  0  0  0
  1  6  1  0  0  0  0
  2  3  1  0  0  0  0
  3  4  1  0  0  0  0
  3  5  1  0  0  0  0
  4  5  1  0  0  0  0
  6  7  1  0  0  0  0
  7  8  4  0  0  0  0
  7 15  4  0  0  0  0
  8  9  4  0  0  0  0
  9 10  1  0  0  0  0
  9 13  4  0  0  0  0
 10 11  1  0  0  0  0
 10 19  1  0  0  0  0
 11 12  1  0  0  0  0
 11 16  1  0  0  0  0
 12 13  1  0  0  0  0
 13 14  4  0  0  0  0
 14 15  4  0  0  0  0
 16 17  1  0  0  0  0
 17 18  1  0  0  0  0
 18 19  1  0  0  0  0
 19 20  1  0  0  0  0
M  END
>  <Name_Molregno>
342514

>  <5-HT1A>
6.14

>  <5-HT1B>
6.14

>  <5-HT1D>
6.44

>  <5-HT2A>
7.13

>  <5-HT2C>
8.44

>  <5-HT3>
6

>  <5-HT5>
6.14

>  <5-HT6>
6.14

>  <5-HT7>
6

>  <Beta-1>
6

>  <DOPAMINE D4>
6.14

>  <Dopamine transporter>
6

>  <Norepinephrine transporter>
6

>  <Serotonin transporter>
6

$$$$
342515
  Marvin  02231216192D 0   1.00000     0.00000     0

 17 19  0  0  1  0  0  0  0  0999 V2000
    0.0327   -0.6901    0.0000 O   0  0  0  0  0  0  0  0  0
    0.8397   -0.8617    0.0000 C   0  0  0  0  0  0  0  0  0
    1.0947   -1.6463    0.0000 C   0  0  0  0  0  0  0  0  0
    1.3918   -0.2486    0.0000 C   0  0  0  0  0  0  0  0  0
    2.1987   -0.4201    0.0000 N   0  0  0  0  0  0  0  0  0
    2.7508    0.1930    0.0000 C   0  0  0  0  0  0  0  0  0
    3.5758    0.1930    0.0000 N   0  0  0  0  0  0  0  0  0
    3.8307    0.9776    0.0000 C   0  0  0  0  0  0  0  0  0
    3.1633    1.4625    0.0000 C   0  0  0  0  0  0  0  0  0
    2.4958    0.9776    0.0000 C   0  0  0  0  0  0  0  0  0
    1.6888    1.1492    0.0000 C   0  0  0  0  0  0  0  0  0
    1.1368    0.5361    0.0000 C   0  0  0  0  0  0  0  0  0
    4.6377    1.1492    0.0000 C   0  0  0  0  0  0  0  0  0
    5.1897    0.5361    0.0000 N   0  0  0  0  0  0  0  0  0
    4.9348   -0.2486    0.0000 C   0  0  0  0  0  0  0  0  0
    4.1278   -0.4201    0.0000 C   0  0  0  0  0  0  0  0  0
    3.8729   -1.2047    0.0000 C   0  0  0  0  0  0  0  0  0
  1  2  1  0  0  0  0
  2  3  1  0  0  0  0
  2  4  1  0  0  0  0
  4  5  4  0  0  0  0
  4 12  4  0  0  0  0
  5  6  4  0  0  0  0
  6  7  1  0  0  0  0
  6 10  4  0  0  0  0
  7  8  1  0  0  0  0
  7 16  1  0  0  0  0
  8  9  1  0  0  0  0
  8 13  1  0  0  0  0
  9 10  1  0  0  0  0
 10 11  4  0  0  0  0
 11 12  4  0  0  0  0
 13 14  1  0  0  0  0
 14 15  1  0  0  0  0
 15 16  1  0  0  0  0
 16 17  1  0  0  0  0
M  END
>  <Name_Molregno>
342515

>  <5-HT2A>
6.41

>  <5-HT2C>
7.41

$$$$
342563
  Marvin  02231216192D 0   1.00000     0.00000     0

 15 17  0  0  1  0  0  0  0  0999 V2000
    0.1702   -1.4880    0.0000 Br  0  0  0  0  0  0  0  0  0
    0.7222   -0.8749    0.0000 C   0  0  0  0  0  0  0  0  0
    1.5292   -1.0464    0.0000 N   0  0  0  0  0  0  0  0  0
    2.0812   -0.4333    0.0000 C   0  0  0  0  0  0  0  0  0
    2.9062   -0.4333    0.0000 N   0  0  0  0  0  0  0  0  0
    3.1611    0.3513    0.0000 C   0  0  0  0  0  0  0  0  0
    2.4937    0.8362    0.0000 C   0  0  0  0  0  0  0  0  0
    1.8263    0.3513    0.0000 C   0  0  0  0  0  0  0  0  0
    1.0193    0.5229    0.0000 C   0  0  0  0  0  0  0  0  0
    0.4673   -0.0902    0.0000 C   0  0  0  0  0  0  0  0  0
    3.9681    0.5229    0.0000 C   0  0  0  0  0  0  0  0  0
    4.5201   -0.0902    0.0000 N   0  0  0  0  0  0  0  0  0
    4.2652   -0.8749    0.0000 C   0  0  0  0  0  0  0  0  0
    3.4582   -1.0464    0.0000 C   0  0  0  0  0  0  0  0  0
    3.2033   -1.8310    0.0000 C   0  0  0  0  0  0  0  0  0
  1  2  1  0  0  0  0
  2  3  4  0  0  0  0
  2 10  4  0  0  0  0
  3  4  4  0  0  0  0
  4  5  1  0  0  0  0
  4  8  4  0  0  0  0
  5  6  1  0  0  0  0
  5 14  1  0  0  0  0
  6  7  1  0  0  0  0
  6 11  1  0  0  0  0
  7  8  1  0  0  0  0
  8  9  4  0  0  0  0
  9 10  4  0  0  0  0
 11 12  1  0  0  0  0
 12 13  1  0  0  0  0
 13 14  1  0  0  0  0
 14 15  1  0  0  0  0
M  END
>  <Name_Molregno>
342563

>  <5-HT2A>
7.26

>  <5-HT2C>
8.39

$$$$
342580
  Marvin  02231216192D 0   1.00000     0.00000     0

 19 21  0  0  1  0  0  0  0  0999 V2000
    0.9141   -1.3378    0.0000 O   0  0  0  0  0  0  0  0  0
    0.6591   -0.5532    0.0000 C   0  0  0  0  0  0  0  0  0
   -0.1478   -0.3816    0.0000 C   0  0  0  0  0  0  0  0  0
    1.2112    0.0599    0.0000 C   0  0  0  0  0  0  0  0  0
    2.0181   -0.1116    0.0000 N   0  0  0  0  0  0  0  0  0
    2.5702    0.5015    0.0000 C   0  0  0  0  0  0  0  0  0
    3.3952    0.5015    0.0000 N   0  0  0  0  0  0  0  0  0
    3.6501    1.2861    0.0000 C   0  0  0  0  0  0  0  0  0
    2.9827    1.7711    0.0000 C   0  0  0  0  0  0  0  0  0
    2.3152    1.2861    0.0000 C   0  0  0  0  0  0  0  0  0
    1.5083    1.4577    0.0000 C   0  0  0  0  0  0  0  0  0
    0.9562    0.8446    0.0000 C   0  0  0  0  0  0  0  0  0
    4.4571    1.4577    0.0000 C   0  0  0  0  0  0  0  0  0
    5.0091    0.8446    0.0000 N   0  0  0  0  0  0  0  0  0
    4.7542    0.0599    0.0000 C   0  0  0  0  0  0  0  0  0
    3.9472   -0.1116    0.0000 C   0  0  0  0  0  0  0  0  0
    3.6923   -0.8962    0.0000 C   0  0  0  0  0  0  0  0  0
    0.3620   -1.9509    0.0000 C   0  0  0  0  0  0  0  0  0
    0.6170   -2.7355    0.0000 C   0  0  0  0  0  0  0  0  0
  1  2  1  0  0  0  0
  1 18  1  0  0  0  0
  2  3  1  0  0  0  0
  2  4  1  0  0  0  0
  4  5  4  0  0  0  0
  4 12  4  0  0  0  0
  5  6  4  0  0  0  0
  6  7  1  0  0  0  0
  6 10  4  0  0  0  0
  7  8  1  0  0  0  0
  7 16  1  0  0  0  0
  8  9  1  0  0  0  0
  8 13  1  0  0  0  0
  9 10  1  0  0  0  0
 10 11  4  0  0  0  0
 11 12  4  0  0  0  0
 13 14  1  0  0  0  0
 14 15  1  0  0  0  0
 15 16  1  0  0  0  0
 16 17  1  0  0  0  0
 18 19  1  0  0  0  0
M  END
>  <Name_Molregno>
342580

>  <5-HT2A>
6.41

>  <5-HT2C>
7.84

$$$$
342685
  Marvin  02231216192D 0   1.00000     0.00000     0

 14 16  0  0  1  0  0  0  0  0999 V2000
    0.2061   -1.7016    0.0000 Cl  0  0  0  0  0  0  0  0  0
    0.7581   -1.0885    0.0000 C   0  0  0  0  0  0  0  0  0
    1.5651   -1.2601    0.0000 N   0  0  0  0  0  0  0  0  0
    2.1171   -0.6470    0.0000 C   0  0  0  0  0  0  0  0  0
    2.9421   -0.6470    0.0000 N   0  0  0  0  0  0  0  0  0
    3.1971    0.1377    0.0000 C   0  0  0  0  0  0  0  0  0
    2.5296    0.6226    0.0000 C   0  0  0  0  0  0  0  0  0
    1.8622    0.1377    0.0000 C   0  0  0  0  0  0  0  0  0
    1.0552    0.3092    0.0000 C   0  0  0  0  0  0  0  0  0
    0.5032   -0.3039    0.0000 C   0  0  0  0  0  0  0  0  0
    4.0040    0.3092    0.0000 C   0  0  0  0  0  0  0  0  0
    4.5561   -0.3039    0.0000 N   0  0  0  0  0  0  0  0  0
    4.3011   -1.0885    0.0000 C   0  0  0  0  0  0  0  0  0
    3.4941   -1.2601    0.0000 C   0  0  0  0  0  0  0  0  0
  1  2  1  0  0  0  0
  2  3  4  0  0  0  0
  2 10  4  0  0  0  0
  3  4  4  0  0  0  0
  4  5  1  0  0  0  0
  4  8  4  0  0  0  0
  5  6  1  0  0  0  0
  5 14  1  0  0  0  0
  6  7  1  0  0  0  0
  6 11  1  0  0  0  0
  7  8  1  0  0  0  0
  8  9  4  0  0  0  0
  9 10  4  0  0  0  0
 11 12  1  0  0  0  0
 12 13  1  0  0  0  0
 13 14  1  0  0  0  0
M  END
>  <Name_Molregno>
342685

>  <5-HT2A>
6.66

>  <5-HT2C>
6.88

$$$$
344371
  Marvin  02231216192D 0   1.00000     0.00000     0

 27 29  0  0  0  0  0  0  0  0999 V2000
   -8.3424    3.5017    0.0000 O   0  0  0  0  0  0  0  0  0
   -9.0569    3.9142    0.0000 C   0  0  0  0  0  0  0  0  0
   -8.3424    2.6767    0.0000 C   0  0  0  0  0  0  0  0  0
   -7.6279    2.2642    0.0000 C   0  0  0  0  0  0  0  0  0
   -7.6279    1.4392    0.0000 C   0  0  0  0  0  0  0  0  0
   -6.9134    1.0267    0.0000 N   0  0  0  0  0  0  0  0  0
   -6.1990    1.4392    0.0000 C   0  0  0  0  0  0  0  0  0
   -5.4845    1.0267    0.0000 C   0  0  0  0  0  0  0  0  0
   -5.4845    0.2017    0.0000 N   0  0  0  0  0  0  0  0  0
   -6.1990   -0.2108    0.0000 C   0  0  0  0  0  0  0  0  0
   -6.9134    0.2017    0.0000 C   0  0  0  0  0  0  0  0  0
   -4.7700   -0.2108    0.0000 C   0  0  0  0  0  0  0  0  0
   -4.0556    0.2017    0.0000 C   0  0  0  0  0  0  0  0  0
   -3.3411   -0.2108    0.0000 C   0  0  0  0  0  0  0  0  0
   -2.6266    0.2017    0.0000 C   0  0  0  0  0  0  0  0  0
   -1.9121   -0.2108    0.0000 N   0  0  0  0  0  0  0  0  0
   -1.1977    0.2017    0.0000 N   0  0  0  0  0  0  0  0  0
   -0.4832   -0.2108    0.0000 C   0  0  0  0  0  0  0  0  0
   -0.4832   -1.0358    0.0000 C   0  0  0  0  0  0  0  0  0
    0.2313   -1.4483    0.0000 O   0  0  0  0  0  0  0  0  0
   -1.1977   -1.4483    0.0000 N   0  0  0  0  0  0  0  0  0
   -1.1977   -2.2733    0.0000 C   0  0  0  0  0  0  0  0  0
   -1.9121   -1.0358    0.0000 C   0  0  0  0  0  0  0  0  0
   -2.6266   -1.4483    0.0000 O   0  0  0  0  0  0  0  0  0
   -8.3424    1.0267    0.0000 C   0  0  0  0  0  0  0  0  0
   -9.0569    1.4392    0.0000 C   0  0  0  0  0  0  0  0  0
   -9.0569    2.2642    0.0000 C   0  0  0  0  0  0  0  0  0
  1  2  1  0  0  0  0
  1  3  1  0  0  0  0
  3  4  4  0  0  0  0
  3 27  4  0  0  0  0
  4  5  4  0  0  0  0
  5  6  1  0  0  0  0
  5 25  4  0  0  0  0
  6  7  1  0  0  0  0
  6 11  1  0  0  0  0
  7  8  1  0  0  0  0
  8  9  1  0  0  0  0
  9 10  1  0  0  0  0
  9 12  1  0  0  0  0
 10 11  1  0  0  0  0
 12 13  1  0  0  0  0
 13 14  1  0  0  0  0
 14 15  1  0  0  0  0
 15 16  1  0  0  0  0
 16 17  1  0  0  0  0
 16 23  1  0  0  0  0
 17 18  2  0  0  0  0
 18 19  1  0  0  0  0
 19 20  2  0  0  0  0
 19 21  1  0  0  0  0
 21 22  1  0  0  0  0
 21 23  1  0  0  0  0
 23 24  2  0  0  0  0
 25 26  4  0  0  0  0
 26 27  4  0  0  0  0
M  END
>  <Name_Molregno>
344371

>  <5-HT1A>
8.96

>  <5-HT1B>
6.64

>  <5-HT1E>
5

>  <5-HT2A>
5.68

>  <5-HT3>
5

>  <5-HT5>
5

>  <5-HT6>
5

>  <5-HT7>
6.48

>  <Alpha-1A>
6.38

>  <Alpha-1B>
6.42

>  <Alpha-2A>
6.6

>  <Alpha-2C>
6.96

>  <DOPAMINE D2>
5.59

>  <DOPAMINE D3>
5

>  <DOPAMINE D4>
5

>  <DOPAMINE D5>
5

>  <Dopamine transporter>
5

>  <HISTAMINE H1>
6.08

>  <HISTAMINE H2>
5.67

>  <HISTAMINE H3>
5

>  <HISTAMINE H4>
5

>  <Norepinephrine transporter>
5

>  <Serotonin transporter>
5

$$$$
347717
  Marvin  02231216192D 0   1.00000     0.00000     0

 35 39  0  0  0  0  0  0  0  0999 V2000
   -0.3729    0.5322    0.0000 S   0  0  0  0  0  0  0  0  0
    0.0396   -0.1822    0.0000 O   0  0  0  0  0  0  0  0  0
   -0.7854    1.2467    0.0000 O   0  0  0  0  0  0  0  0  0
   -1.0874    0.1197    0.0000 N   0  0  0  0  0  0  0  0  0
   -1.0874   -0.7053    0.0000 C   0  0  0  0  0  0  0  0  0
   -1.8019   -1.1178    0.0000 C   0  0  0  0  0  0  0  0  0
   -2.5163   -0.7053    0.0000 C   0  0  0  0  0  0  0  0  0
   -2.5163    0.1197    0.0000 C   0  0  0  0  0  0  0  0  0
   -1.8019    0.5322    0.0000 C   0  0  0  0  0  0  0  0  0
   -3.2308   -1.1178    0.0000 C   0  0  0  0  0  0  0  0  0
   -3.9453   -0.7053    0.0000 C   0  0  0  0  0  0  0  0  0
   -4.6597   -1.1178    0.0000 C   0  0  0  0  0  0  0  0  0
   -4.6597   -1.9428    0.0000 C   0  0  0  0  0  0  0  0  0
   -5.3742   -2.3553    0.0000 C   0  0  0  0  0  0  0  0  0
   -6.0887   -1.9428    0.0000 C   0  0  0  0  0  0  0  0  0
   -6.8032   -2.3553    0.0000 F   0  0  0  0  0  0  0  0  0
   -6.0887   -1.1178    0.0000 C   0  0  0  0  0  0  0  0  0
   -5.3742   -0.7053    0.0000 C   0  0  0  0  0  0  0  0  0
   -5.3742    0.1197    0.0000 F   0  0  0  0  0  0  0  0  0
    0.3416    0.9447    0.0000 C   0  0  0  0  0  0  0  0  0
    0.3416    1.7697    0.0000 C   0  0  0  0  0  0  0  0  0
    1.0560    2.1822    0.0000 C   0  0  0  0  0  0  0  0  0
    1.7705    1.7697    0.0000 C   0  0  0  0  0  0  0  0  0
    1.7705    0.9447    0.0000 C   0  0  0  0  0  0  0  0  0
    1.0560    0.5322    0.0000 C   0  0  0  0  0  0  0  0  0
    1.0560   -0.2928    0.0000 C   0  0  0  0  0  0  0  0  0
    1.7705   -0.7053    0.0000 C   0  0  0  0  0  0  0  0  0
    2.4850   -0.2928    0.0000 N   0  0  0  0  0  0  0  0  0
    3.1994   -0.7053    0.0000 C   0  0  0  0  0  0  0  0  0
    3.1994   -1.5303    0.0000 C   0  0  0  0  0  0  0  0  0
    2.4850   -1.9428    0.0000 C   0  0  0  0  0  0  0  0  0
    1.7705   -1.5303    0.0000 C   0  0  0  0  0  0  0  0  0
    1.0560   -1.9428    0.0000 C   0  0  0  0  0  0  0  0  0
    0.3416   -1.5303    0.0000 C   0  0  0  0  0  0  0  0  0
    0.3416   -0.7053    0.0000 C   0  0  0  0  0  0  0  0  0
  1  2  2  0  0  0  0
  1  3  2  0  0  0  0
  1  4  1  0  0  0  0
  1 20  1  0  0  0  0
  4  5  1  0  0  0  0
  4  9  1  0  0  0  0
  5  6  1  0  0  0  0
  6  7  1  0  0  0  0
  7  8  1  0  0  0  0
  7 10  1  0  0  0  0
  8  9  1  0  0  0  0
 10 11  1  0  0  0  0
 11 12  1  0  0  0  0
 12 13  4  0  0  0  0
 12 18  4  0  0  0  0
 13 14  4  0  0  0  0
 14 15  4  0  0  0  0
 15 16  1  0  0  0  0
 15 17  4  0  0  0  0
 17 18  4  0  0  0  0
 18 19  1  0  0  0  0
 20 21  4  0  0  0  0
 20 25  4  0  0  0  0
 21 22  4  0  0  0  0
 22 23  4  0  0  0  0
 23 24  4  0  0  0  0
 24 25  4  0  0  0  0
 25 26  1  0  0  0  0
 26 27  4  0  0  0  0
 26 35  4  0  0  0  0
 27 28  4  0  0  0  0
 27 32  4  0  0  0  0
 28 29  4  0  0  0  0
 29 30  4  0  0  0  0
 30 31  4  0  0  0  0
 31 32  4  0  0  0  0
 32 33  4  0  0  0  0
 33 34  4  0  0  0  0
 34 35  4  0  0  0  0
M  END
>  <Name_Molregno>
347717

>  <5-HT2A>
8.68

>  <5-HT2C>
6.74

>  <DOPAMINE D2>
6

$$$$
347718
  Marvin  02231216192D 0   1.00000     0.00000     0

 25 27  0  0  0  0  0  0  0  0999 V2000
   -0.3443   -0.5404    0.0000 F   0  0  0  0  0  0  0  0  0
   -0.3443   -1.3654    0.0000 C   0  0  0  0  0  0  0  0  0
    0.3702   -1.7779    0.0000 C   0  0  0  0  0  0  0  0  0
    0.3702   -2.6029    0.0000 C   0  0  0  0  0  0  0  0  0
    1.0847   -3.0154    0.0000 F   0  0  0  0  0  0  0  0  0
   -0.3443   -3.0154    0.0000 C   0  0  0  0  0  0  0  0  0
   -1.0588   -2.6029    0.0000 C   0  0  0  0  0  0  0  0  0
   -1.0588   -1.7779    0.0000 C   0  0  0  0  0  0  0  0  0
   -1.7732   -1.3654    0.0000 C   0  0  0  0  0  0  0  0  0
   -2.4877   -1.7779    0.0000 C   0  0  0  0  0  0  0  0  0
   -3.2022   -1.3654    0.0000 C   0  0  0  0  0  0  0  0  0
   -3.9166   -1.7779    0.0000 C   0  0  0  0  0  0  0  0  0
   -4.6311   -1.3654    0.0000 C   0  0  0  0  0  0  0  0  0
   -4.6311   -0.5404    0.0000 N   0  0  0  0  0  0  0  0  0
   -3.9166   -0.1279    0.0000 C   0  0  0  0  0  0  0  0  0
   -3.2022   -0.5404    0.0000 C   0  0  0  0  0  0  0  0  0
   -5.3456   -0.1279    0.0000 C   0  0  0  0  0  0  0  0  0
   -6.0600   -0.5404    0.0000 O   0  0  0  0  0  0  0  0  0
   -5.3456    0.6971    0.0000 C   0  0  0  0  0  0  0  0  0
   -6.0600    1.1096    0.0000 C   0  0  0  0  0  0  0  0  0
   -6.0600    1.9346    0.0000 C   0  0  0  0  0  0  0  0  0
   -5.3456    2.3471    0.0000 C   0  0  0  0  0  0  0  0  0
   -4.6311    1.9346    0.0000 C   0  0  0  0  0  0  0  0  0
   -4.6311    1.1096    0.0000 C   0  0  0  0  0  0  0  0  0
   -3.9166    0.6971    0.0000 F   0  0  0  0  0  0  0  0  0
  1  2  1  0  0  0  0
  2  3  4  0  0  0  0
  2  8  4  0  0  0  0
  3  4  4  0  0  0  0
  4  5  1  0  0  0  0
  4  6  4  0  0  0  0
  6  7  4  0  0  0  0
  7  8  4  0  0  0  0
  8  9  1  0  0  0  0
  9 10  1  0  0  0  0
 10 11  1  0  0  0  0
 11 12  1  0  0  0  0
 11 16  1  0  0  0  0
 12 13  1  0  0  0  0
 13 14  1  0  0  0  0
 14 15  1  0  0  0  0
 14 17  1  0  0  0  0
 15 16  1  0  0  0  0
 17 18  2  0  0  0  0
 17 19  1  0  0  0  0
 19 20  4  0  0  0  0
 19 24  4  0  0  0  0
 20 21  4  0  0  0  0
 21 22  4  0  0  0  0
 22 23  4  0  0  0  0
 23 24  4  0  0  0  0
 24 25  1  0  0  0  0
M  END
>  <Name_Molregno>
347718

>  <5-HT2A>
8.41

>  <5-HT2C>
6.98

>  <DOPAMINE D2>
6

$$$$
347723
  Marvin  02231216192D 0   1.00000     0.00000     0

 28 31  0  0  0  0  0  0  0  0999 V2000
   -6.7952   -0.3138    0.0000 F   0  0  0  0  0  0  0  0  0
   -6.7952    0.5112    0.0000 C   0  0  0  0  0  0  0  0  0
   -7.5096    0.9237    0.0000 C   0  0  0  0  0  0  0  0  0
   -7.5096    1.7487    0.0000 C   0  0  0  0  0  0  0  0  0
   -8.2241    2.1612    0.0000 F   0  0  0  0  0  0  0  0  0
   -6.7952    2.1612    0.0000 C   0  0  0  0  0  0  0  0  0
   -6.0807    1.7487    0.0000 C   0  0  0  0  0  0  0  0  0
   -6.0807    0.9237    0.0000 C   0  0  0  0  0  0  0  0  0
   -5.3662    0.5112    0.0000 C   0  0  0  0  0  0  0  0  0
   -4.6518    0.9237    0.0000 C   0  0  0  0  0  0  0  0  0
   -3.9373    0.5112    0.0000 C   0  0  0  0  0  0  0  0  0
   -3.2228    0.9237    0.0000 C   0  0  0  0  0  0  0  0  0
   -2.5083    0.5112    0.0000 C   0  0  0  0  0  0  0  0  0
   -2.5083   -0.3138    0.0000 N   0  0  0  0  0  0  0  0  0
   -3.2228   -0.7263    0.0000 C   0  0  0  0  0  0  0  0  0
   -3.9373   -0.3138    0.0000 C   0  0  0  0  0  0  0  0  0
   -1.7939   -0.7263    0.0000 C   0  0  0  0  0  0  0  0  0
   -1.0794   -0.3138    0.0000 O   0  0  0  0  0  0  0  0  0
   -1.7939   -1.5513    0.0000 C   0  0  0  0  0  0  0  0  0
   -1.0794   -1.9638    0.0000 C   0  0  0  0  0  0  0  0  0
   -0.3649   -1.5513    0.0000 N   0  0  0  0  0  0  0  0  0
    0.3495   -1.9638    0.0000 C   0  0  0  0  0  0  0  0  0
    0.3495   -2.7888    0.0000 C   0  0  0  0  0  0  0  0  0
   -0.3649   -3.2013    0.0000 C   0  0  0  0  0  0  0  0  0
   -1.0794   -2.7888    0.0000 C   0  0  0  0  0  0  0  0  0
   -1.7939   -3.2013    0.0000 C   0  0  0  0  0  0  0  0  0
   -2.5083   -2.7888    0.0000 C   0  0  0  0  0  0  0  0  0
   -2.5083   -1.9638    0.0000 C   0  0  0  0  0  0  0  0  0
  1  2  1  0  0  0  0
  2  3  4  0  0  0  0
  2  8  4  0  0  0  0
  3  4  4  0  0  0  0
  4  5  1  0  0  0  0
  4  6  4  0  0  0  0
  6  7  4  0  0  0  0
  7  8  4  0  0  0  0
  8  9  1  0  0  0  0
  9 10  1  0  0  0  0
 10 11  1  0  0  0  0
 11 12  1  0  0  0  0
 11 16  1  0  0  0  0
 12 13  1  0  0  0  0
 13 14  1  0  0  0  0
 14 15  1  0  0  0  0
 14 17  1  0  0  0  0
 15 16  1  0  0  0  0
 17 18  2  0  0  0  0
 17 19  1  0  0  0  0
 19 20  4  0  0  0  0
 19 28  4  0  0  0  0
 20 21  4  0  0  0  0
 20 25  4  0  0  0  0
 21 22  4  0  0  0  0
 22 23  4  0  0  0  0
 23 24  4  0  0  0  0
 24 25  4  0  0  0  0
 25 26  4  0  0  0  0
 26 27  4  0  0  0  0
 27 28  4  0  0  0  0
M  END
>  <Name_Molregno>
347723

>  <5-HT2A>
8.54

>  <5-HT2C>
7.55

>  <DOPAMINE D2>
6

$$$$
347726
  Marvin  02231216192D 0   1.00000     0.00000     0

 29 32  0  0  0  0  0  0  0  0999 V2000
   -0.3777   -0.8035    0.0000 F   0  0  0  0  0  0  0  0  0
   -0.3777   -1.6285    0.0000 C   0  0  0  0  0  0  0  0  0
    0.3368   -2.0410    0.0000 C   0  0  0  0  0  0  0  0  0
    0.3368   -2.8660    0.0000 C   0  0  0  0  0  0  0  0  0
    1.0512   -3.2785    0.0000 F   0  0  0  0  0  0  0  0  0
   -0.3777   -3.2785    0.0000 C   0  0  0  0  0  0  0  0  0
   -1.0922   -2.8660    0.0000 C   0  0  0  0  0  0  0  0  0
   -1.0922   -2.0410    0.0000 C   0  0  0  0  0  0  0  0  0
   -1.8067   -1.6285    0.0000 C   0  0  0  0  0  0  0  0  0
   -2.5211   -2.0410    0.0000 C   0  0  0  0  0  0  0  0  0
   -3.2356   -1.6285    0.0000 N   0  0  0  0  0  0  0  0  0
   -3.9501   -2.0410    0.0000 C   0  0  0  0  0  0  0  0  0
   -4.6645   -1.6285    0.0000 C   0  0  0  0  0  0  0  0  0
   -4.6645   -0.8035    0.0000 N   0  0  0  0  0  0  0  0  0
   -3.9501   -0.3910    0.0000 C   0  0  0  0  0  0  0  0  0
   -3.2356   -0.8035    0.0000 C   0  0  0  0  0  0  0  0  0
   -5.3790   -0.3910    0.0000 C   0  0  0  0  0  0  0  0  0
   -6.0935   -0.8035    0.0000 O   0  0  0  0  0  0  0  0  0
   -5.3790    0.4340    0.0000 C   0  0  0  0  0  0  0  0  0
   -6.0935    0.8465    0.0000 C   0  0  0  0  0  0  0  0  0
   -6.8781    0.5916    0.0000 N   0  0  0  0  0  0  0  0  0
   -7.3630    1.2590    0.0000 C   0  0  0  0  0  0  0  0  0
   -6.8781    1.9264    0.0000 C   0  0  0  0  0  0  0  0  0
   -6.0935    1.6715    0.0000 C   0  0  0  0  0  0  0  0  0
   -5.3790    2.0840    0.0000 C   0  0  0  0  0  0  0  0  0
   -4.6645    1.6715    0.0000 C   0  0  0  0  0  0  0  0  0
   -4.6645    0.8465    0.0000 C   0  0  0  0  0  0  0  0  0
   -7.1330    2.7111    0.0000 C   0  0  0  0  0  0  0  0  0
   -7.3880    3.4957    0.0000 N   0  0  0  0  0  0  0  0  0
  1  2  1  0  0  0  0
  2  3  4  0  0  0  0
  2  8  4  0  0  0  0
  3  4  4  0  0  0  0
  4  5  1  0  0  0  0
  4  6  4  0  0  0  0
  6  7  4  0  0  0  0
  7  8  4  0  0  0  0
  8  9  1  0  0  0  0
  9 10  1  0  0  0  0
 10 11  1  0  0  0  0
 11 12  1  0  0  0  0
 11 16  1  0  0  0  0
 12 13  1  0  0  0  0
 13 14  1  0  0  0  0
 14 15  1  0  0  0  0
 14 17  1  0  0  0  0
 15 16  1  0  0  0  0
 17 18  2  0  0  0  0
 17 19  1  0  0  0  0
 19 20  4  0  0  0  0
 19 27  4  0  0  0  0
 20 21  4  0  0  0  0
 20 24  4  0  0  0  0
 21 22  4  0  0  0  0
 22 23  4  0  0  0  0
 23 24  4  0  0  0  0
 23 28  1  0  0  0  0
 24 25  4  0  0  0  0
 25 26  4  0  0  0  0
 26 27  4  0  0  0  0
 28 29  3  0  0  0  0
M  STY  1   1 DAT
M  SAL   1  1  21
M  SDT   1 MRV_IMPLICIT_H                                        
M  SDD   1     0.0000    0.0000    DR    ALL  0       0  
M  SED   1 IMPL_H1
M  END
>  <Name_Molregno>
347726

>  <5-HT2A>
9.06

>  <5-HT2C>
6.25

>  <DOPAMINE D2>
6

$$$$
347727
  Marvin  02231216192D 0   1.00000     0.00000     0

 26 28  0  0  0  0  0  0  0  0999 V2000
   -1.4737    1.5229    0.0000 S   0  0  0  0  0  0  0  0  0
   -0.6487    1.5229    0.0000 O   0  0  0  0  0  0  0  0  0
   -2.2987    1.5229    0.0000 O   0  0  0  0  0  0  0  0  0
   -1.4737    0.6979    0.0000 N   0  0  0  0  0  0  0  0  0
   -0.7592    0.2854    0.0000 C   0  0  0  0  0  0  0  0  0
   -0.7592   -0.5396    0.0000 C   0  0  0  0  0  0  0  0  0
   -1.4737   -0.9521    0.0000 N   0  0  0  0  0  0  0  0  0
   -2.1881   -0.5396    0.0000 C   0  0  0  0  0  0  0  0  0
   -2.1881    0.2854    0.0000 C   0  0  0  0  0  0  0  0  0
   -1.4737   -1.7771    0.0000 C   0  0  0  0  0  0  0  0  0
   -2.1881   -2.1896    0.0000 C   0  0  0  0  0  0  0  0  0
   -2.1881   -3.0146    0.0000 C   0  0  0  0  0  0  0  0  0
   -1.4737   -3.4271    0.0000 C   0  0  0  0  0  0  0  0  0
   -1.4737   -4.2521    0.0000 C   0  0  0  0  0  0  0  0  0
   -2.1881   -4.6646    0.0000 C   0  0  0  0  0  0  0  0  0
   -2.1881   -5.4896    0.0000 F   0  0  0  0  0  0  0  0  0
   -2.9026   -4.2521    0.0000 C   0  0  0  0  0  0  0  0  0
   -2.9026   -3.4271    0.0000 C   0  0  0  0  0  0  0  0  0
   -3.6171   -3.0146    0.0000 F   0  0  0  0  0  0  0  0  0
   -1.4737    2.3479    0.0000 C   0  0  0  0  0  0  0  0  0
   -2.1881    2.7604    0.0000 C   0  0  0  0  0  0  0  0  0
   -2.1881    3.5854    0.0000 C   0  0  0  0  0  0  0  0  0
   -1.4737    3.9979    0.0000 C   0  0  0  0  0  0  0  0  0
   -1.4737    4.8229    0.0000 F   0  0  0  0  0  0  0  0  0
   -0.7592    3.5854    0.0000 C   0  0  0  0  0  0  0  0  0
   -0.7592    2.7604    0.0000 C   0  0  0  0  0  0  0  0  0
  1  2  2  0  0  0  0
  1  3  2  0  0  0  0
  1  4  1  0  0  0  0
  1 20  1  0  0  0  0
  4  5  1  0  0  0  0
  4  9  1  0  0  0  0
  5  6  1  0  0  0  0
  6  7  1  0  0  0  0
  7  8  1  0  0  0  0
  7 10  1  0  0  0  0
  8  9  1  0  0  0  0
 10 11  1  0  0  0  0
 11 12  1  0  0  0  0
 12 13  4  0  0  0  0
 12 18  4  0  0  0  0
 13 14  4  0  0  0  0
 14 15  4  0  0  0  0
 15 16  1  0  0  0  0
 15 17  4  0  0  0  0
 17 18  4  0  0  0  0
 18 19  1  0  0  0  0
 20 21  4  0  0  0  0
 20 26  4  0  0  0  0
 21 22  4  0  0  0  0
 22 23  4  0  0  0  0
 23 24  1  0  0  0  0
 23 25  4  0  0  0  0
 25 26  4  0  0  0  0
M  END
>  <Name_Molregno>
347727

>  <5-HT2A>
8.36

>  <5-HT2C>
5.42

>  <DOPAMINE D2>
6

$$$$
347738
  Marvin  02231216192D 0   1.00000     0.00000     0

 27 29  0  0  0  0  0  0  0  0999 V2000
   -2.1578   -1.6001    0.0000 S   0  0  0  0  0  0  0  0  0
   -2.9828   -1.6001    0.0000 O   0  0  0  0  0  0  0  0  0
   -1.3328   -1.6001    0.0000 O   0  0  0  0  0  0  0  0  0
   -2.1578   -0.7751    0.0000 N   0  0  0  0  0  0  0  0  0
   -2.8723   -0.3626    0.0000 C   0  0  0  0  0  0  0  0  0
   -2.8723    0.4624    0.0000 C   0  0  0  0  0  0  0  0  0
   -2.1578    0.8749    0.0000 C   0  0  0  0  0  0  0  0  0
   -2.6881    1.5068    0.0000 O   0  0  0  0  0  0  0  0  0
   -1.4433    0.4624    0.0000 C   0  0  0  0  0  0  0  0  0
   -1.4433   -0.3626    0.0000 C   0  0  0  0  0  0  0  0  0
   -1.6275    1.5068    0.0000 C   0  0  0  0  0  0  0  0  0
   -1.9097    2.2821    0.0000 C   0  0  0  0  0  0  0  0  0
   -1.3794    2.9141    0.0000 C   0  0  0  0  0  0  0  0  0
   -1.6616    3.6893    0.0000 C   0  0  0  0  0  0  0  0  0
   -1.1313    4.3213    0.0000 C   0  0  0  0  0  0  0  0  0
   -0.3188    4.1780    0.0000 C   0  0  0  0  0  0  0  0  0
    0.2115    4.8100    0.0000 F   0  0  0  0  0  0  0  0  0
   -0.0366    3.4028    0.0000 C   0  0  0  0  0  0  0  0  0
   -0.5669    2.7708    0.0000 C   0  0  0  0  0  0  0  0  0
   -0.2848    1.9956    0.0000 F   0  0  0  0  0  0  0  0  0
   -2.1578   -2.4251    0.0000 C   0  0  0  0  0  0  0  0  0
   -1.4433   -2.8376    0.0000 C   0  0  0  0  0  0  0  0  0
   -1.4433   -3.6626    0.0000 C   0  0  0  0  0  0  0  0  0
   -2.1578   -4.0751    0.0000 C   0  0  0  0  0  0  0  0  0
   -2.1578   -4.9001    0.0000 F   0  0  0  0  0  0  0  0  0
   -2.8723   -3.6626    0.0000 C   0  0  0  0  0  0  0  0  0
   -2.8723   -2.8376    0.0000 C   0  0  0  0  0  0  0  0  0
  1  2  2  0  0  0  0
  1  3  2  0  0  0  0
  1  4  1  0  0  0  0
  1 21  1  0  0  0  0
  4  5  1  0  0  0  0
  4 10  1  0  0  0  0
  5  6  1  0  0  0  0
  6  7  1  0  0  0  0
  7  8  1  0  0  0  0
  7  9  1  0  0  0  0
  7 11  1  0  0  0  0
  9 10  1  0  0  0  0
 11 12  1  0  0  0  0
 12 13  1  0  0  0  0
 13 14  4  0  0  0  0
 13 19  4  0  0  0  0
 14 15  4  0  0  0  0
 15 16  4  0  0  0  0
 16 17  1  0  0  0  0
 16 18  4  0  0  0  0
 18 19  4  0  0  0  0
 19 20  1  0  0  0  0
 21 22  4  0  0  0  0
 21 27  4  0  0  0  0
 22 23  4  0  0  0  0
 23 24  4  0  0  0  0
 24 25  1  0  0  0  0
 24 26  4  0  0  0  0
 26 27  4  0  0  0  0
M  END
>  <Name_Molregno>
347738

>  <5-HT2A>
6.72

>  <5-HT2C>
5.4

>  <DOPAMINE D2>
6

$$$$
347877
  Marvin  02231216192D 0   1.00000     0.00000     0

 31 33  0  0  0  0  0  0  0  0999 V2000
    6.6753   -0.6471    0.0000 S   0  0  0  0  0  0  0  0  0
    6.9453   -1.4267    0.0000 O   0  0  0  0  0  0  0  0  0
    6.4053    0.1325    0.0000 O   0  0  0  0  0  0  0  0  0
    5.8958   -0.9171    0.0000 N   0  0  0  0  0  0  0  0  0
    5.2721   -0.3771    0.0000 C   0  0  0  0  0  0  0  0  0
    4.4926   -0.6471    0.0000 C   0  0  0  0  0  0  0  0  0
    3.8689   -0.1070    0.0000 C   0  0  0  0  0  0  0  0  0
    3.0894   -0.3771    0.0000 C   0  0  0  0  0  0  0  0  0
    2.4657    0.1630    0.0000 N   0  0  0  0  0  0  0  0  0
    1.6862   -0.1070    0.0000 C   0  0  0  0  0  0  0  0  0
    1.0625    0.4331    0.0000 C   0  0  0  0  0  0  0  0  0
    1.2184    1.2432    0.0000 N   0  0  0  0  0  0  0  0  0
    1.9980    1.5133    0.0000 C   0  0  0  0  0  0  0  0  0
    2.6216    0.9732    0.0000 C   0  0  0  0  0  0  0  0  0
    0.5948    1.7833    0.0000 C   0  0  0  0  0  0  0  0  0
   -0.1848    1.5133    0.0000 C   0  0  0  0  0  0  0  0  0
   -0.8084    2.0533    0.0000 C   0  0  0  0  0  0  0  0  0
   -1.5879    1.7833    0.0000 N   0  0  0  0  0  0  0  0  0
   -2.2116    2.3234    0.0000 C   0  0  0  0  0  0  0  0  0
   -2.9911    2.0533    0.0000 O   0  0  0  0  0  0  0  0  0
   -2.0557    3.1335    0.0000 C   0  0  0  0  0  0  0  0  0
   -0.6525    2.8635    0.0000 C   0  0  0  0  0  0  0  0  0
    0.1271    3.1335    0.0000 C   0  0  0  0  0  0  0  0  0
    0.7507    2.5934    0.0000 C   0  0  0  0  0  0  0  0  0
    7.4549   -0.3771    0.0000 C   0  0  0  0  0  0  0  0  0
    8.0785   -0.9171    0.0000 C   0  0  0  0  0  0  0  0  0
    8.8580   -0.6471    0.0000 C   0  0  0  0  0  0  0  0  0
    9.4817   -1.1872    0.0000 C   0  0  0  0  0  0  0  0  0
    9.3258   -1.9973    0.0000 C   0  0  0  0  0  0  0  0  0
    8.5462   -2.2674    0.0000 C   0  0  0  0  0  0  0  0  0
    7.9226   -1.7273    0.0000 C   0  0  0  0  0  0  0  0  0
  1  2  2  0  0  0  0
  1  3  2  0  0  0  0
  1  4  1  0  0  0  0
  1 25  1  0  0  0  0
  4  5  1  0  0  0  0
  5  6  1  0  0  0  0
  6  7  1  0  0  0  0
  7  8  1  0  0  0  0
  8  9  1  0  0  0  0
  9 10  1  0  0  0  0
  9 14  1  0  0  0  0
 10 11  1  0  0  0  0
 11 12  1  0  0  0  0
 12 13  1  0  0  0  0
 12 15  1  0  0  0  0
 13 14  1  0  0  0  0
 15 16  4  0  0  0  0
 15 24  4  0  0  0  0
 16 17  4  0  0  0  0
 17 18  1  0  0  0  0
 17 22  4  0  0  0  0
 18 19  1  0  0  0  0
 19 20  2  0  0  0  0
 19 21  1  0  0  0  0
 22 23  4  0  0  0  0
 23 24  4  0  0  0  0
 25 26  1  0  0  0  0
 26 27  1  0  0  0  0
 26 31  1  0  0  0  0
 27 28  1  0  0  0  0
 28 29  1  0  0  0  0
 29 30  1  0  0  0  0
 30 31  1  0  0  0  0
M  END
>  <Name_Molregno>
347877

>  <5-HT1A>
8.29

>  <5-HT2A>
5.7

>  <5-HT2C>
5.3

>  <5-HT5>
5.3

>  <5-HT6>
5.3

>  <5-HT7>
6.15

>  <DOPAMINE D2>
5.7

>  <Dopamine transporter>
5.7

>  <Norepinephrine transporter>
5.7

$$$$
348081
  Marvin  02231216192D 0   1.00000     0.00000     0

 27 29  0  0  0  0  0  0  0  0999 V2000
   -2.1578   -1.6001    0.0000 S   0  0  0  0  0  0  0  0  0
   -2.9828   -1.6001    0.0000 O   0  0  0  0  0  0  0  0  0
   -1.3328   -1.6001    0.0000 O   0  0  0  0  0  0  0  0  0
   -2.1578   -0.7751    0.0000 N   0  0  0  0  0  0  0  0  0
   -2.8723   -0.3626    0.0000 C   0  0  0  0  0  0  0  0  0
   -2.8723    0.4624    0.0000 C   0  0  0  0  0  0  0  0  0
   -2.1578    0.8749    0.0000 C   0  0  0  0  0  0  0  0  0
   -2.6881    1.5068    0.0000 F   0  0  0  0  0  0  0  0  0
   -1.4433    0.4624    0.0000 C   0  0  0  0  0  0  0  0  0
   -1.4433   -0.3626    0.0000 C   0  0  0  0  0  0  0  0  0
   -1.6275    1.5068    0.0000 C   0  0  0  0  0  0  0  0  0
   -1.9097    2.2821    0.0000 C   0  0  0  0  0  0  0  0  0
   -1.3794    2.9141    0.0000 C   0  0  0  0  0  0  0  0  0
   -1.6616    3.6893    0.0000 C   0  0  0  0  0  0  0  0  0
   -1.1313    4.3213    0.0000 C   0  0  0  0  0  0  0  0  0
   -0.3188    4.1780    0.0000 C   0  0  0  0  0  0  0  0  0
    0.2115    4.8100    0.0000 F   0  0  0  0  0  0  0  0  0
   -0.0366    3.4028    0.0000 C   0  0  0  0  0  0  0  0  0
   -0.5669    2.7708    0.0000 C   0  0  0  0  0  0  0  0  0
   -0.2848    1.9956    0.0000 F   0  0  0  0  0  0  0  0  0
   -2.1578   -2.4251    0.0000 C   0  0  0  0  0  0  0  0  0
   -1.4433   -2.8376    0.0000 C   0  0  0  0  0  0  0  0  0
   -1.4433   -3.6626    0.0000 C   0  0  0  0  0  0  0  0  0
   -2.1578   -4.0751    0.0000 C   0  0  0  0  0  0  0  0  0
   -2.1578   -4.9001    0.0000 F   0  0  0  0  0  0  0  0  0
   -2.8723   -3.6626    0.0000 C   0  0  0  0  0  0  0  0  0
   -2.8723   -2.8376    0.0000 C   0  0  0  0  0  0  0  0  0
  1  2  2  0  0  0  0
  1  3  2  0  0  0  0
  1  4  1  0  0  0  0
  1 21  1  0  0  0  0
  4  5  1  0  0  0  0
  4 10  1  0  0  0  0
  5  6  1  0  0  0  0
  6  7  1  0  0  0  0
  7  8  1  0  0  0  0
  7  9  1  0  0  0  0
  7 11  1  0  0  0  0
  9 10  1  0  0  0  0
 11 12  1  0  0  0  0
 12 13  1  0  0  0  0
 13 14  4  0  0  0  0
 13 19  4  0  0  0  0
 14 15  4  0  0  0  0
 15 16  4  0  0  0  0
 16 17  1  0  0  0  0
 16 18  4  0  0  0  0
 18 19  4  0  0  0  0
 19 20  1  0  0  0  0
 21 22  4  0  0  0  0
 21 27  4  0  0  0  0
 22 23  4  0  0  0  0
 23 24  4  0  0  0  0
 24 25  1  0  0  0  0
 24 26  4  0  0  0  0
 26 27  4  0  0  0  0
M  END
>  <Name_Molregno>
348081

>  <5-HT2A>
7.62

>  <5-HT2C>
6.09

>  <DOPAMINE D2>
6

$$$$
348112
  Marvin  02231216192D 0   1.00000     0.00000     0

 26 28  0  0  0  0  0  0  0  0999 V2000
   -1.6241    2.1482    0.0000 S   0  0  0  0  0  0  0  0  0
   -0.7991    2.1482    0.0000 O   0  0  0  0  0  0  0  0  0
   -2.4491    2.1482    0.0000 O   0  0  0  0  0  0  0  0  0
   -1.6241    1.3232    0.0000 N   0  0  0  0  0  0  0  0  0
   -0.9096    0.9107    0.0000 C   0  0  0  0  0  0  0  0  0
   -0.9096    0.0857    0.0000 C   0  0  0  0  0  0  0  0  0
   -1.6241   -0.3268    0.0000 C   0  0  0  0  0  0  0  0  0
   -2.3385    0.0857    0.0000 C   0  0  0  0  0  0  0  0  0
   -2.3385    0.9107    0.0000 C   0  0  0  0  0  0  0  0  0
   -1.6241   -1.1518    0.0000 C   0  0  0  0  0  0  0  0  0
   -2.3385   -1.5643    0.0000 C   0  0  0  0  0  0  0  0  0
   -2.3385   -2.3893    0.0000 C   0  0  0  0  0  0  0  0  0
   -1.6241   -2.8018    0.0000 C   0  0  0  0  0  0  0  0  0
   -1.6241   -3.6268    0.0000 C   0  0  0  0  0  0  0  0  0
   -2.3385   -4.0393    0.0000 C   0  0  0  0  0  0  0  0  0
   -2.3385   -4.8643    0.0000 F   0  0  0  0  0  0  0  0  0
   -3.0530   -3.6268    0.0000 C   0  0  0  0  0  0  0  0  0
   -3.0530   -2.8018    0.0000 C   0  0  0  0  0  0  0  0  0
   -3.7675   -2.3893    0.0000 F   0  0  0  0  0  0  0  0  0
   -1.6241    2.9732    0.0000 C   0  0  0  0  0  0  0  0  0
   -2.3385    3.3857    0.0000 C   0  0  0  0  0  0  0  0  0
   -2.3385    4.2107    0.0000 C   0  0  0  0  0  0  0  0  0
   -1.6241    4.6232    0.0000 C   0  0  0  0  0  0  0  0  0
   -0.9096    4.2107    0.0000 C   0  0  0  0  0  0  0  0  0
   -0.9096    3.3857    0.0000 C   0  0  0  0  0  0  0  0  0
   -0.1951    2.9732    0.0000 F   0  0  0  0  0  0  0  0  0
  1  2  2  0  0  0  0
  1  3  2  0  0  0  0
  1  4  1  0  0  0  0
  1 20  1  0  0  0  0
  4  5  1  0  0  0  0
  4  9  1  0  0  0  0
  5  6  1  0  0  0  0
  6  7  1  0  0  0  0
  7  8  1  0  0  0  0
  7 10  1  0  0  0  0
  8  9  1  0  0  0  0
 10 11  1  0  0  0  0
 11 12  1  0  0  0  0
 12 13  4  0  0  0  0
 12 18  4  0  0  0  0
 13 14  4  0  0  0  0
 14 15  4  0  0  0  0
 15 16  1  0  0  0  0
 15 17  4  0  0  0  0
 17 18  4  0  0  0  0
 18 19  1  0  0  0  0
 20 21  4  0  0  0  0
 20 25  4  0  0  0  0
 21 22  4  0  0  0  0
 22 23  4  0  0  0  0
 23 24  4  0  0  0  0
 24 25  4  0  0  0  0
 25 26  1  0  0  0  0
M  END
>  <Name_Molregno>
348112

>  <5-HT2A>
8

>  <5-HT2C>
6.62

>  <DOPAMINE D2>
6

$$$$
348204
  Marvin  02231216192D 0   1.00000     0.00000     0

 28 31  0  0  1  0  0  0  0  0999 V2000
   10.2950   -1.6307    0.0000 Cl  0  0  0  0  0  0  0  0  0
    9.4759   -1.5325    0.0000 C   0  0  0  0  0  0  0  0  0
    8.9812   -2.1928    0.0000 C   0  0  0  0  0  0  0  0  0
    8.1621   -2.0945    0.0000 C   0  0  0  0  0  0  0  0  0
    7.8376   -1.3360    0.0000 C   0  0  0  0  0  0  0  0  0
    8.3323   -0.6758    0.0000 C   0  0  0  0  0  0  0  0  0
    9.1514   -0.7740    0.0000 C   0  0  0  0  0  0  0  0  0
    7.0185   -1.2378    0.0000 C   0  0  0  0  0  0  0  0  0
    6.6925   -1.9956    0.0000 O   0  0  0  0  0  0  0  0  0
    6.8803   -0.4204    0.0000 C   0  0  0  0  0  0  0  0  0
    5.9515   -0.4359    0.0000 C   0  0  0  0  0  0  0  0  0
    5.3909    0.0040    0.0000 N   0  0  0  0  0  0  0  0  0
    5.5306   -0.8091    0.0000 C   0  0  0  0  0  0  0  0  0
    6.5023   -0.8091    0.0000 C   0  0  0  0  0  0  0  0  0
    5.0107   -1.5214    0.0000 C   0  0  0  0  0  0  0  0  0
    5.6310   -1.1445    0.0000 C   0  0  0  0  0  0  0  0  0
    4.9683    0.7126    0.0000 C   0  0  0  0  0  0  0  0  0
    4.1434    0.7008    0.0000 C   0  0  0  0  0  0  0  0  0
    3.7208    1.4094    0.0000 C   0  0  0  0  0  0  0  0  0
    2.8958    1.3977    0.0000 C   0  0  0  0  0  0  0  0  0
    2.4935    0.6774    0.0000 O   0  0  0  0  0  0  0  0  0
    2.4732    2.1062    0.0000 C   0  0  0  0  0  0  0  0  0
    1.6483    2.0945    0.0000 C   0  0  0  0  0  0  0  0  0
    1.2257    2.8030    0.0000 C   0  0  0  0  0  0  0  0  0
    1.6280    3.5233    0.0000 C   0  0  0  0  0  0  0  0  0
    1.2054    4.2318    0.0000 F   0  0  0  0  0  0  0  0  0
    2.4529    3.5350    0.0000 C   0  0  0  0  0  0  0  0  0
    2.8755    2.8265    0.0000 C   0  0  0  0  0  0  0  0  0
  1  2  1  0  0  0  0
  2  3  4  0  0  0  0
  2  7  4  0  0  0  0
  3  4  4  0  0  0  0
  4  5  4  0  0  0  0
  5  6  4  0  0  0  0
  5  8  1  0  0  0  0
  6  7  4  0  0  0  0
  8  9  1  0  0  0  0
  8 10  1  0  0  0  0
  8 14  1  0  0  0  0
 10 11  1  0  0  0  0
 11 12  1  0  0  0  0
 11 16  1  0  0  0  0
 12 13  1  0  0  0  0
 12 17  1  0  0  0  0
 13 14  1  0  0  0  0
 13 15  1  0  0  0  0
 15 16  1  0  0  0  0
 17 18  1  0  0  0  0
 18 19  1  0  0  0  0
 19 20  1  0  0  0  0
 20 21  2  0  0  0  0
 20 22  1  0  0  0  0
 22 23  4  0  0  0  0
 22 28  4  0  0  0  0
 23 24  4  0  0  0  0
 24 25  4  0  0  0  0
 25 26  1  0  0  0  0
 25 27  4  0  0  0  0
 27 28  4  0  0  0  0
M  END
>  <Name_Molregno>
348204

>  <5-HT1A>
7.56

>  <5-HT2A>
7.51

>  <5-HT2C>
6.06

>  <Alpha-1A>
7.41

>  <Alpha-1B>
7.37

>  <Alpha-2A>
5.55

>  <Alpha-2B>
6.29

>  <Alpha-2C>
6.85

>  <DOPAMINE D2>
8.8

>  <DOPAMINE D3>
8.29

>  <DOPAMINE D4>
8.28

>  <HISTAMINE H1>
5.06

$$$$
348235
  Marvin  02231216192D 0   1.00000     0.00000     0

 26 28  0  0  0  0  0  0  0  0999 V2000
   -1.4737    2.1262    0.0000 S   0  0  0  0  0  0  0  0  0
   -0.6487    2.1262    0.0000 O   0  0  0  0  0  0  0  0  0
   -2.2987    2.1262    0.0000 O   0  0  0  0  0  0  0  0  0
   -1.4737    1.3012    0.0000 N   0  0  0  0  0  0  0  0  0
   -0.7592    0.8887    0.0000 C   0  0  0  0  0  0  0  0  0
   -0.7592    0.0637    0.0000 C   0  0  0  0  0  0  0  0  0
   -1.4737   -0.3488    0.0000 C   0  0  0  0  0  0  0  0  0
   -2.1881    0.0637    0.0000 C   0  0  0  0  0  0  0  0  0
   -2.1881    0.8887    0.0000 C   0  0  0  0  0  0  0  0  0
   -1.4737   -1.1738    0.0000 C   0  0  0  0  0  0  0  0  0
   -2.1881   -1.5863    0.0000 C   0  0  0  0  0  0  0  0  0
   -2.1881   -2.4113    0.0000 C   0  0  0  0  0  0  0  0  0
   -1.4737   -2.8238    0.0000 C   0  0  0  0  0  0  0  0  0
   -1.4737   -3.6488    0.0000 C   0  0  0  0  0  0  0  0  0
   -2.1881   -4.0613    0.0000 C   0  0  0  0  0  0  0  0  0
   -2.1881   -4.8863    0.0000 F   0  0  0  0  0  0  0  0  0
   -2.9026   -3.6488    0.0000 C   0  0  0  0  0  0  0  0  0
   -2.9026   -2.8238    0.0000 C   0  0  0  0  0  0  0  0  0
   -3.6171   -2.4113    0.0000 F   0  0  0  0  0  0  0  0  0
   -1.4737    2.9512    0.0000 C   0  0  0  0  0  0  0  0  0
   -2.1881    3.3637    0.0000 C   0  0  0  0  0  0  0  0  0
   -2.1881    4.1887    0.0000 C   0  0  0  0  0  0  0  0  0
   -1.4737    4.6012    0.0000 C   0  0  0  0  0  0  0  0  0
   -1.4737    5.4262    0.0000 F   0  0  0  0  0  0  0  0  0
   -0.7592    4.1887    0.0000 C   0  0  0  0  0  0  0  0  0
   -0.7592    3.3637    0.0000 C   0  0  0  0  0  0  0  0  0
  1  2  2  0  0  0  0
  1  3  2  0  0  0  0
  1  4  1  0  0  0  0
  1 20  1  0  0  0  0
  4  5  1  0  0  0  0
  4  9  1  0  0  0  0
  5  6  1  0  0  0  0
  6  7  1  0  0  0  0
  7  8  2  0  0  0  0
  7 10  1  0  0  0  0
  8  9  1  0  0  0  0
 10 11  1  0  0  0  0
 11 12  1  0  0  0  0
 12 13  4  0  0  0  0
 12 18  4  0  0  0  0
 13 14  4  0  0  0  0
 14 15  4  0  0  0  0
 15 16  1  0  0  0  0
 15 17  4  0  0  0  0
 17 18  4  0  0  0  0
 18 19  1  0  0  0  0
 20 21  4  0  0  0  0
 20 26  4  0  0  0  0
 21 22  4  0  0  0  0
 22 23  4  0  0  0  0
 23 24  1  0  0  0  0
 23 25  4  0  0  0  0
 25 26  4  0  0  0  0
M  END
>  <Name_Molregno>
348235

>  <5-HT2A>
7.66

>  <5-HT2C>
6.35

>  <DOPAMINE D2>
6

$$$$
348237
  Marvin  02231216192D 0   1.00000     0.00000     0

 26 28  0  0  0  0  0  0  0  0999 V2000
    5.8444   -1.6309    0.0000 Cl  0  0  0  0  0  0  0  0  0
    5.8444   -2.4559    0.0000 C   0  0  0  0  0  0  0  0  0
    6.5588   -2.8684    0.0000 C   0  0  0  0  0  0  0  0  0
    6.5588   -3.6934    0.0000 C   0  0  0  0  0  0  0  0  0
    5.8444   -4.1059    0.0000 C   0  0  0  0  0  0  0  0  0
    5.1299   -3.6934    0.0000 C   0  0  0  0  0  0  0  0  0
    5.1299   -2.8684    0.0000 C   0  0  0  0  0  0  0  0  0
    4.4154   -2.4559    0.0000 S   0  0  0  0  0  0  0  0  0
    4.8279   -1.7414    0.0000 O   0  0  0  0  0  0  0  0  0
    4.0029   -3.1704    0.0000 O   0  0  0  0  0  0  0  0  0
    3.7009   -2.0434    0.0000 N   0  0  0  0  0  0  0  0  0
    2.9865   -2.4559    0.0000 C   0  0  0  0  0  0  0  0  0
    2.2720   -2.0434    0.0000 C   0  0  0  0  0  0  0  0  0
    2.2720   -1.2184    0.0000 C   0  0  0  0  0  0  0  0  0
    2.9865   -0.8059    0.0000 C   0  0  0  0  0  0  0  0  0
    3.7009   -1.2184    0.0000 C   0  0  0  0  0  0  0  0  0
    1.5575   -0.8059    0.0000 C   0  0  0  0  0  0  0  0  0
    0.8431   -1.2184    0.0000 C   0  0  0  0  0  0  0  0  0
    0.1286   -0.8059    0.0000 C   0  0  0  0  0  0  0  0  0
   -0.5859   -1.2184    0.0000 C   0  0  0  0  0  0  0  0  0
   -1.3004   -0.8059    0.0000 C   0  0  0  0  0  0  0  0  0
   -1.3004    0.0191    0.0000 C   0  0  0  0  0  0  0  0  0
   -2.0148    0.4316    0.0000 F   0  0  0  0  0  0  0  0  0
   -0.5859    0.4316    0.0000 C   0  0  0  0  0  0  0  0  0
    0.1286    0.0191    0.0000 C   0  0  0  0  0  0  0  0  0
    0.8431    0.4316    0.0000 F   0  0  0  0  0  0  0  0  0
  1  2  1  0  0  0  0
  2  3  4  0  0  0  0
  2  7  4  0  0  0  0
  3  4  4  0  0  0  0
  4  5  4  0  0  0  0
  5  6  4  0  0  0  0
  6  7  4  0  0  0  0
  7  8  1  0  0  0  0
  8  9  2  0  0  0  0
  8 10  2  0  0  0  0
  8 11  1  0  0  0  0
 11 12  1  0  0  0  0
 11 16  1  0  0  0  0
 12 13  1  0  0  0  0
 13 14  1  0  0  0  0
 14 15  1  0  0  0  0
 14 17  1  0  0  0  0
 15 16  1  0  0  0  0
 17 18  1  0  0  0  0
 18 19  1  0  0  0  0
 19 20  4  0  0  0  0
 19 25  4  0  0  0  0
 20 21  4  0  0  0  0
 21 22  4  0  0  0  0
 22 23  1  0  0  0  0
 22 24  4  0  0  0  0
 24 25  4  0  0  0  0
 25 26  1  0  0  0  0
M  END
>  <Name_Molregno>
348237

>  <5-HT2A>
8.21

>  <5-HT2C>
6.39

>  <DOPAMINE D2>
6

$$$$
348244
  Marvin  02231216192D 0   1.00000     0.00000     0

 26 28  0  0  0  0  0  0  0  0999 V2000
   -1.4737    2.1262    0.0000 S   0  0  0  0  0  0  0  0  0
   -0.6487    2.1262    0.0000 O   0  0  0  0  0  0  0  0  0
   -2.2987    2.1262    0.0000 O   0  0  0  0  0  0  0  0  0
   -1.4737    1.3012    0.0000 N   0  0  0  0  0  0  0  0  0
   -0.7592    0.8887    0.0000 C   0  0  0  0  0  0  0  0  0
   -0.7592    0.0637    0.0000 C   0  0  0  0  0  0  0  0  0
   -1.4737   -0.3488    0.0000 C   0  0  0  0  0  0  0  0  0
   -2.1881    0.0637    0.0000 C   0  0  0  0  0  0  0  0  0
   -2.1881    0.8887    0.0000 C   0  0  0  0  0  0  0  0  0
   -1.4737   -1.1738    0.0000 C   0  0  0  0  0  0  0  0  0
   -2.1881   -1.5863    0.0000 C   0  0  0  0  0  0  0  0  0
   -2.1881   -2.4113    0.0000 C   0  0  0  0  0  0  0  0  0
   -1.4737   -2.8238    0.0000 C   0  0  0  0  0  0  0  0  0
   -1.4737   -3.6488    0.0000 C   0  0  0  0  0  0  0  0  0
   -2.1881   -4.0613    0.0000 C   0  0  0  0  0  0  0  0  0
   -2.1881   -4.8863    0.0000 F   0  0  0  0  0  0  0  0  0
   -2.9026   -3.6488    0.0000 C   0  0  0  0  0  0  0  0  0
   -2.9026   -2.8238    0.0000 C   0  0  0  0  0  0  0  0  0
   -3.6171   -2.4113    0.0000 F   0  0  0  0  0  0  0  0  0
   -1.4737    2.9512    0.0000 C   0  0  0  0  0  0  0  0  0
   -2.1881    3.3637    0.0000 C   0  0  0  0  0  0  0  0  0
   -2.1881    4.1887    0.0000 C   0  0  0  0  0  0  0  0  0
   -1.4737    4.6012    0.0000 C   0  0  0  0  0  0  0  0  0
   -1.4737    5.4262    0.0000 F   0  0  0  0  0  0  0  0  0
   -0.7592    4.1887    0.0000 C   0  0  0  0  0  0  0  0  0
   -0.7592    3.3637    0.0000 C   0  0  0  0  0  0  0  0  0
  1  2  2  0  0  0  0
  1  3  2  0  0  0  0
  1  4  1  0  0  0  0
  1 20  1  0  0  0  0
  4  5  1  0  0  0  0
  4  9  1  0  0  0  0
  5  6  1  0  0  0  0
  6  7  1  0  0  0  0
  7  8  1  0  0  0  0
  7 10  1  0  0  0  0
  8  9  1  0  0  0  0
 10 11  1  0  0  0  0
 11 12  1  0  0  0  0
 12 13  4  0  0  0  0
 12 18  4  0  0  0  0
 13 14  4  0  0  0  0
 14 15  4  0  0  0  0
 15 16  1  0  0  0  0
 15 17  4  0  0  0  0
 17 18  4  0  0  0  0
 18 19  1  0  0  0  0
 20 21  4  0  0  0  0
 20 26  4  0  0  0  0
 21 22  4  0  0  0  0
 22 23  4  0  0  0  0
 23 24  1  0  0  0  0
 23 25  4  0  0  0  0
 25 26  4  0  0  0  0
M  END
>  <Name_Molregno>
348244

>  <5-HT2A>
7.28

>  <5-HT2C>
5.69

>  <DOPAMINE D2>
6

$$$$
348245
  Marvin  02231216192D 0   1.00000     0.00000     0

 26 28  0  0  0  0  0  0  0  0999 V2000
    2.1637    2.1086    0.0000 S   0  0  0  0  0  0  0  0  0
    2.9887    2.1086    0.0000 O   0  0  0  0  0  0  0  0  0
    1.3387    2.1086    0.0000 O   0  0  0  0  0  0  0  0  0
    2.1637    1.2836    0.0000 N   0  0  0  0  0  0  0  0  0
    2.8782    0.8711    0.0000 C   0  0  0  0  0  0  0  0  0
    2.8782    0.0461    0.0000 C   0  0  0  0  0  0  0  0  0
    2.1637   -0.3664    0.0000 C   0  0  0  0  0  0  0  0  0
    1.4493    0.0461    0.0000 C   0  0  0  0  0  0  0  0  0
    1.4493    0.8711    0.0000 C   0  0  0  0  0  0  0  0  0
    2.1637   -1.1914    0.0000 C   0  0  0  0  0  0  0  0  0
    1.4493   -1.6039    0.0000 C   0  0  0  0  0  0  0  0  0
    1.4493   -2.4289    0.0000 C   0  0  0  0  0  0  0  0  0
    2.1637   -2.8414    0.0000 C   0  0  0  0  0  0  0  0  0
    2.1637   -3.6664    0.0000 C   0  0  0  0  0  0  0  0  0
    1.4493   -4.0789    0.0000 C   0  0  0  0  0  0  0  0  0
    1.4493   -4.9039    0.0000 F   0  0  0  0  0  0  0  0  0
    0.7348   -3.6664    0.0000 C   0  0  0  0  0  0  0  0  0
    0.7348   -2.8414    0.0000 C   0  0  0  0  0  0  0  0  0
    0.0203   -2.4289    0.0000 F   0  0  0  0  0  0  0  0  0
    2.1637    2.9336    0.0000 C   0  0  0  0  0  0  0  0  0
    1.4493    3.3461    0.0000 C   0  0  0  0  0  0  0  0  0
    1.4493    4.1711    0.0000 C   0  0  0  0  0  0  0  0  0
    0.7348    4.5836    0.0000 F   0  0  0  0  0  0  0  0  0
    2.1637    4.5836    0.0000 C   0  0  0  0  0  0  0  0  0
    2.8782    4.1711    0.0000 C   0  0  0  0  0  0  0  0  0
    2.8782    3.3461    0.0000 C   0  0  0  0  0  0  0  0  0
  1  2  2  0  0  0  0
  1  3  2  0  0  0  0
  1  4  1  0  0  0  0
  1 20  1  0  0  0  0
  4  5  1  0  0  0  0
  4  9  1  0  0  0  0
  5  6  1  0  0  0  0
  6  7  1  0  0  0  0
  7  8  1  0  0  0  0
  7 10  1  0  0  0  0
  8  9  1  0  0  0  0
 10 11  1  0  0  0  0
 11 12  1  0  0  0  0
 12 13  4  0  0  0  0
 12 18  4  0  0  0  0
 13 14  4  0  0  0  0
 14 15  4  0  0  0  0
 15 16  1  0  0  0  0
 15 17  4  0  0  0  0
 17 18  4  0  0  0  0
 18 19  1  0  0  0  0
 20 21  4  0  0  0  0
 20 26  4  0  0  0  0
 21 22  4  0  0  0  0
 22 23  1  0  0  0  0
 22 24  4  0  0  0  0
 24 25  4  0  0  0  0
 25 26  4  0  0  0  0
M  END
>  <Name_Molregno>
348245

>  <5-HT2A>
7.85

>  <5-HT2C>
6

>  <DOPAMINE D2>
6

$$$$
348246
  Marvin  02231216192D 0   1.00000     0.00000     0

 27 29  0  0  0  0  0  0  0  0999 V2000
   -1.6265    1.9936    0.0000 S   0  0  0  0  0  0  0  0  0
   -0.8015    1.9936    0.0000 O   0  0  0  0  0  0  0  0  0
   -2.4515    1.9936    0.0000 O   0  0  0  0  0  0  0  0  0
   -1.6265    1.1686    0.0000 N   0  0  0  0  0  0  0  0  0
   -0.9120    0.7561    0.0000 C   0  0  0  0  0  0  0  0  0
   -0.9120   -0.0689    0.0000 C   0  0  0  0  0  0  0  0  0
   -1.6265   -0.4814    0.0000 C   0  0  0  0  0  0  0  0  0
   -2.3409   -0.0689    0.0000 C   0  0  0  0  0  0  0  0  0
   -2.3409    0.7561    0.0000 C   0  0  0  0  0  0  0  0  0
   -1.6265   -1.3064    0.0000 C   0  0  0  0  0  0  0  0  0
   -2.3409   -1.7189    0.0000 C   0  0  0  0  0  0  0  0  0
   -2.3409   -2.5439    0.0000 C   0  0  0  0  0  0  0  0  0
   -1.6265   -2.9564    0.0000 C   0  0  0  0  0  0  0  0  0
   -1.6265   -3.7814    0.0000 C   0  0  0  0  0  0  0  0  0
   -2.3409   -4.1939    0.0000 C   0  0  0  0  0  0  0  0  0
   -2.3409   -5.0189    0.0000 F   0  0  0  0  0  0  0  0  0
   -3.0554   -3.7814    0.0000 C   0  0  0  0  0  0  0  0  0
   -3.0554   -2.9564    0.0000 C   0  0  0  0  0  0  0  0  0
   -3.7699   -2.5439    0.0000 F   0  0  0  0  0  0  0  0  0
   -1.6265    2.8186    0.0000 C   0  0  0  0  0  0  0  0  0
   -2.3409    3.2311    0.0000 C   0  0  0  0  0  0  0  0  0
   -2.3409    4.0561    0.0000 C   0  0  0  0  0  0  0  0  0
   -1.6265    4.4686    0.0000 C   0  0  0  0  0  0  0  0  0
   -0.9120    4.0561    0.0000 C   0  0  0  0  0  0  0  0  0
   -0.9120    3.2311    0.0000 C   0  0  0  0  0  0  0  0  0
   -0.1975    2.8186    0.0000 C   0  0  0  0  0  0  0  0  0
    0.5169    2.4061    0.0000 N   0  0  0  0  0  0  0  0  0
  1  2  2  0  0  0  0
  1  3  2  0  0  0  0
  1  4  1  0  0  0  0
  1 20  1  0  0  0  0
  4  5  1  0  0  0  0
  4  9  1  0  0  0  0
  5  6  1  0  0  0  0
  6  7  1  0  0  0  0
  7  8  1  0  0  0  0
  7 10  1  0  0  0  0
  8  9  1  0  0  0  0
 10 11  1  0  0  0  0
 11 12  1  0  0  0  0
 12 13  4  0  0  0  0
 12 18  4  0  0  0  0
 13 14  4  0  0  0  0
 14 15  4  0  0  0  0
 15 16  1  0  0  0  0
 15 17  4  0  0  0  0
 17 18  4  0  0  0  0
 18 19  1  0  0  0  0
 20 21  4  0  0  0  0
 20 25  4  0  0  0  0
 21 22  4  0  0  0  0
 22 23  4  0  0  0  0
 23 24  4  0  0  0  0
 24 25  4  0  0  0  0
 25 26  1  0  0  0  0
 26 27  3  0  0  0  0
M  END
>  <Name_Molregno>
348246

>  <5-HT2A>
8.09

>  <5-HT2C>
7.15

>  <DOPAMINE D2>
6

$$$$
348247
  Marvin  02231216192D 0   1.00000     0.00000     0

 35 39  0  0  0  0  0  0  0  0999 V2000
    0.8969    1.7200    0.0000 S   0  0  0  0  0  0  0  0  0
    1.6114    2.1325    0.0000 O   0  0  0  0  0  0  0  0  0
    0.4844    2.4345    0.0000 O   0  0  0  0  0  0  0  0  0
    1.3094    1.0056    0.0000 N   0  0  0  0  0  0  0  0  0
    2.1344    1.0056    0.0000 C   0  0  0  0  0  0  0  0  0
    2.5469    0.2911    0.0000 C   0  0  0  0  0  0  0  0  0
    2.1344   -0.4234    0.0000 C   0  0  0  0  0  0  0  0  0
    1.3094   -0.4234    0.0000 C   0  0  0  0  0  0  0  0  0
    0.8969    0.2911    0.0000 C   0  0  0  0  0  0  0  0  0
    2.5469   -1.1379    0.0000 C   0  0  0  0  0  0  0  0  0
    2.1344   -1.8523    0.0000 C   0  0  0  0  0  0  0  0  0
    2.5469   -2.5668    0.0000 C   0  0  0  0  0  0  0  0  0
    3.3719   -2.5668    0.0000 C   0  0  0  0  0  0  0  0  0
    3.7844   -3.2813    0.0000 C   0  0  0  0  0  0  0  0  0
    3.3719   -3.9957    0.0000 C   0  0  0  0  0  0  0  0  0
    3.7844   -4.7102    0.0000 F   0  0  0  0  0  0  0  0  0
    2.5469   -3.9957    0.0000 C   0  0  0  0  0  0  0  0  0
    2.1344   -3.2813    0.0000 C   0  0  0  0  0  0  0  0  0
    1.3094   -3.2813    0.0000 F   0  0  0  0  0  0  0  0  0
    0.1824    1.3075    0.0000 C   0  0  0  0  0  0  0  0  0
    0.1824    0.4825    0.0000 C   0  0  0  0  0  0  0  0  0
   -0.5320    0.0700    0.0000 C   0  0  0  0  0  0  0  0  0
   -1.2465    0.4825    0.0000 C   0  0  0  0  0  0  0  0  0
   -1.2465    1.3075    0.0000 C   0  0  0  0  0  0  0  0  0
   -0.5320    1.7200    0.0000 C   0  0  0  0  0  0  0  0  0
   -0.5320    2.5450    0.0000 C   0  0  0  0  0  0  0  0  0
    0.1824    2.9575    0.0000 C   0  0  0  0  0  0  0  0  0
    0.1824    3.7825    0.0000 C   0  0  0  0  0  0  0  0  0
   -0.5320    4.1950    0.0000 C   0  0  0  0  0  0  0  0  0
   -1.2465    3.7825    0.0000 C   0  0  0  0  0  0  0  0  0
   -1.2465    2.9575    0.0000 C   0  0  0  0  0  0  0  0  0
    0.8969    4.1950    0.0000 C   0  0  0  0  0  0  0  0  0
    1.6114    3.7825    0.0000 C   0  0  0  0  0  0  0  0  0
    1.6114    2.9575    0.0000 C   0  0  0  0  0  0  0  0  0
    0.8969    2.5450    0.0000 C   0  0  0  0  0  0  0  0  0
  1  2  2  0  0  0  0
  1  3  2  0  0  0  0
  1  4  1  0  0  0  0
  1 20  1  0  0  0  0
  4  5  1  0  0  0  0
  4  9  1  0  0  0  0
  5  6  1  0  0  0  0
  6  7  1  0  0  0  0
  7  8  1  0  0  0  0
  7 10  1  0  0  0  0
  8  9  1  0  0  0  0
 10 11  1  0  0  0  0
 11 12  1  0  0  0  0
 12 13  4  0  0  0  0
 12 18  4  0  0  0  0
 13 14  4  0  0  0  0
 14 15  4  0  0  0  0
 15 16  1  0  0  0  0
 15 17  4  0  0  0  0
 17 18  4  0  0  0  0
 18 19  1  0  0  0  0
 20 21  4  0  0  0  0
 20 25  4  0  0  0  0
 21 22  4  0  0  0  0
 22 23  4  0  0  0  0
 23 24  4  0  0  0  0
 24 25  4  0  0  0  0
 25 26  1  0  0  0  0
 26 27  4  0  0  0  0
 26 31  4  0  0  0  0
 27 28  4  0  0  0  0
 27 35  4  0  0  0  0
 28 29  4  0  0  0  0
 28 32  4  0  0  0  0
 29 30  4  0  0  0  0
 30 31  4  0  0  0  0
 32 33  4  0  0  0  0
 33 34  4  0  0  0  0
 34 35  4  0  0  0  0
M  END
>  <Name_Molregno>
348247

>  <5-HT2A>
8.77

>  <5-HT2C>
7.02

>  <DOPAMINE D2>
6

$$$$
348336
  Marvin  02231216192D 0   1.00000     0.00000     0

 29 31  0  0  0  0  0  0  0  0999 V2000
   -0.0747   -1.1619    0.0000 S   0  0  0  0  0  0  0  0  0
    0.3378   -0.4474    0.0000 O   0  0  0  0  0  0  0  0  0
   -0.4872   -1.8764    0.0000 O   0  0  0  0  0  0  0  0  0
    0.6398   -1.5744    0.0000 N   0  0  0  0  0  0  0  0  0
    1.3543   -1.1619    0.0000 C   0  0  0  0  0  0  0  0  0
    2.0687   -1.5744    0.0000 C   0  0  0  0  0  0  0  0  0
    2.7832   -1.1619    0.0000 C   0  0  0  0  0  0  0  0  0
    3.4977   -1.5744    0.0000 C   0  0  0  0  0  0  0  0  0
    4.2122   -1.1619    0.0000 N   0  0  0  0  0  0  0  0  0
    4.2122   -0.3369    0.0000 C   0  0  0  0  0  0  0  0  0
    4.9266    0.0756    0.0000 C   0  0  0  0  0  0  0  0  0
    5.6411   -0.3369    0.0000 N   0  0  0  0  0  0  0  0  0
    5.6411   -1.1619    0.0000 C   0  0  0  0  0  0  0  0  0
    4.9266   -1.5744    0.0000 C   0  0  0  0  0  0  0  0  0
    6.3556    0.0756    0.0000 C   0  0  0  0  0  0  0  0  0
    6.3556    0.9006    0.0000 C   0  0  0  0  0  0  0  0  0
    7.0700    1.3131    0.0000 C   0  0  0  0  0  0  0  0  0
    7.7845    0.9006    0.0000 C   0  0  0  0  0  0  0  0  0
    7.7845    0.0756    0.0000 C   0  0  0  0  0  0  0  0  0
    7.0700   -0.3369    0.0000 C   0  0  0  0  0  0  0  0  0
    7.0700   -1.1619    0.0000 O   0  0  0  0  0  0  0  0  0
    7.7845   -1.5744    0.0000 C   0  0  0  0  0  0  0  0  0
   -0.7891   -0.7494    0.0000 C   0  0  0  0  0  0  0  0  0
   -1.5036   -1.1619    0.0000 C   0  0  0  0  0  0  0  0  0
   -2.2181   -0.7494    0.0000 C   0  0  0  0  0  0  0  0  0
   -2.2181    0.0756    0.0000 C   0  0  0  0  0  0  0  0  0
   -1.5036    0.4881    0.0000 C   0  0  0  0  0  0  0  0  0
   -0.7891    0.0756    0.0000 C   0  0  0  0  0  0  0  0  0
   -2.9325    0.4881    0.0000 C   0  0  0  0  0  0  0  0  0
  1  2  2  0  0  0  0
  1  3  2  0  0  0  0
  1  4  1  0  0  0  0
  1 23  1  0  0  0  0
  4  5  1  0  0  0  0
  5  6  1  0  0  0  0
  6  7  1  0  0  0  0
  7  8  1  0  0  0  0
  8  9  1  0  0  0  0
  9 10  1  0  0  0  0
  9 14  1  0  0  0  0
 10 11  1  0  0  0  0
 11 12  1  0  0  0  0
 12 13  1  0  0  0  0
 12 15  1  0  0  0  0
 13 14  1  0  0  0  0
 15 16  4  0  0  0  0
 15 20  4  0  0  0  0
 16 17  4  0  0  0  0
 17 18  4  0  0  0  0
 18 19  4  0  0  0  0
 19 20  4  0  0  0  0
 20 21  1  0  0  0  0
 21 22  1  0  0  0  0
 23 24  4  0  0  0  0
 23 28  4  0  0  0  0
 24 25  4  0  0  0  0
 25 26  4  0  0  0  0
 26 27  4  0  0  0  0
 26 29  1  0  0  0  0
 27 28  4  0  0  0  0
M  END
>  <Name_Molregno>
348336

>  <5-HT1A>
9

>  <5-HT2A>
6.31

>  <5-HT7>
7.52

>  <Serotonin transporter>
6.7

$$$$
349376
  Marvin  02231216192D 0   1.00000     0.00000     0

 41 45  0  0  0  0  0  0  0  0999 V2000
   -2.4600    1.8818    0.0000 O   0  0  0  0  0  0  0  0  0
   -2.7149    1.0971    0.0000 C   0  0  0  0  0  0  0  0  0
   -3.5399    1.0971    0.0000 C   0  0  0  0  0  0  0  0  0
   -3.7949    1.8818    0.0000 C   0  0  0  0  0  0  0  0  0
   -3.1274    2.3667    0.0000 C   0  0  0  0  0  0  0  0  0
   -3.1274    3.1917    0.0000 O   0  0  0  0  0  0  0  0  0
   -3.8419    3.6042    0.0000 C   0  0  0  0  0  0  0  0  0
   -4.5564    3.1917    0.0000 C   0  0  0  0  0  0  0  0  0
   -5.2709    3.6042    0.0000 C   0  0  0  0  0  0  0  0  0
   -5.2709    4.4292    0.0000 C   0  0  0  0  0  0  0  0  0
   -4.5564    4.8417    0.0000 C   0  0  0  0  0  0  0  0  0
   -3.8419    4.4292    0.0000 C   0  0  0  0  0  0  0  0  0
   -3.1274    4.8417    0.0000 C   0  0  0  0  0  0  0  0  0
   -6.0555    4.6841    0.0000 C   0  0  0  0  0  0  0  0  0
   -6.5404    4.0167    0.0000 C   0  0  0  0  0  0  0  0  0
   -6.0555    3.3492    0.0000 C   0  0  0  0  0  0  0  0  0
   -5.8924    2.5405    0.0000 C   0  0  0  0  0  0  0  0  0
   -6.6628    2.7908    0.0000 C   0  0  0  0  0  0  0  0  0
   -2.2300    0.4297    0.0000 C   0  0  0  0  0  0  0  0  0
   -2.5656   -0.3240    0.0000 O   0  0  0  0  0  0  0  0  0
   -1.4095    0.5159    0.0000 N   0  0  0  0  0  0  0  0  0
   -0.9246   -0.1515    0.0000 C   0  0  0  0  0  0  0  0  0
   -0.1041   -0.0653    0.0000 C   0  0  0  0  0  0  0  0  0
    0.2314    0.6884    0.0000 O   0  0  0  0  0  0  0  0  0
    1.0519    0.7746    0.0000 C   0  0  0  0  0  0  0  0  0
    0.3808   -0.7327    0.0000 N   0  0  0  0  0  0  0  0  0
    0.0452   -1.4864    0.0000 C   0  0  0  0  0  0  0  0  0
   -0.7753   -1.5726    0.0000 N   0  0  0  0  0  0  0  0  0
   -1.2602   -0.9052    0.0000 C   0  0  0  0  0  0  0  0  0
   -2.0807   -0.9914    0.0000 O   0  0  0  0  0  0  0  0  0
   -2.4162   -1.7451    0.0000 C   0  0  0  0  0  0  0  0  0
    0.5302   -2.1538    0.0000 N   0  0  0  0  0  0  0  0  0
    1.3506   -2.0676    0.0000 C   0  0  0  0  0  0  0  0  0
    1.8356   -2.7350    0.0000 C   0  0  0  0  0  0  0  0  0
    2.6560   -2.6488    0.0000 C   0  0  0  0  0  0  0  0  0
    3.1410   -3.3162    0.0000 N   0  0  0  0  0  0  0  0  0
    3.9614   -3.2300    0.0000 C   0  0  0  0  0  0  0  0  0
    4.4464   -3.8974    0.0000 C   0  0  0  0  0  0  0  0  0
    4.1108   -4.6511    0.0000 O   0  0  0  0  0  0  0  0  0
    3.2903   -4.7373    0.0000 C   0  0  0  0  0  0  0  0  0
    2.8054   -4.0699    0.0000 C   0  0  0  0  0  0  0  0  0
  1  2  4  0  0  0  0
  1  5  4  0  0  0  0
  2  3  4  0  0  0  0
  2 19  1  0  0  0  0
  3  4  4  0  0  0  0
  4  5  4  0  0  0  0
  5  6  1  0  0  0  0
  6  7  1  0  0  0  0
  7  8  4  0  0  0  0
  7 12  4  0  0  0  0
  8  9  4  0  0  0  0
  9 10  4  0  0  0  0
  9 16  1  0  0  0  0
 10 11  4  0  0  0  0
 10 14  1  0  0  0  0
 11 12  4  0  0  0  0
 12 13  1  0  0  0  0
 14 15  1  0  0  0  0
 15 16  1  0  0  0  0
 16 17  1  0  0  0  0
 16 18  1  0  0  0  0
 19 20  2  0  0  0  0
 19 21  1  0  0  0  0
 21 22  1  0  0  0  0
 22 23  4  0  0  0  0
 22 29  4  0  0  0  0
 23 24  1  0  0  0  0
 23 26  4  0  0  0  0
 24 25  1  0  0  0  0
 26 27  4  0  0  0  0
 27 28  4  0  0  0  0
 27 32  1  0  0  0  0
 28 29  4  0  0  0  0
 29 30  1  0  0  0  0
 30 31  1  0  0  0  0
 32 33  1  0  0  0  0
 33 34  1  0  0  0  0
 34 35  1  0  0  0  0
 35 36  1  0  0  0  0
 36 37  1  0  0  0  0
 36 41  1  0  0  0  0
 37 38  1  0  0  0  0
 38 39  1  0  0  0  0
 39 40  1  0  0  0  0
 40 41  1  0  0  0  0
M  END
>  <Name_Molregno>
349376

>  <5-HT2A>
6.23

>  <5-HT2C>
6.02

>  <5-HT7>
5.76

>  <DOPAMINE D1>
5.79

>  <DOPAMINE D3>
5.93

>  <DOPAMINE D4>
5.6

>  <Dopamine transporter>
5.74

>  <HISTAMINE H2>
5.91

>  <Muscarinic acetylcholine receptor M1>
5.39

>  <Muscarinic acetylcholine receptor M4>
5.43

>  <Norepinephrine transporter>
5.29

>  <Serotonin transporter>
5.84

$$$$
353947
  Marvin  02231216192D 0   1.00000     0.00000     0

 32 35  0  0  0  0  0  0  0  0999 V2000
    5.0558    1.2157    0.0000 F   0  0  0  0  0  0  0  0  0
    4.3413    0.8032    0.0000 C   0  0  0  0  0  0  0  0  0
    4.3413   -0.0218    0.0000 C   0  0  0  0  0  0  0  0  0
    3.6269   -0.4343    0.0000 C   0  0  0  0  0  0  0  0  0
    3.6269   -1.2593    0.0000 N   0  0  0  0  0  0  0  0  0
    4.2943   -1.7443    0.0000 C   0  0  0  0  0  0  0  0  0
    4.0394   -2.5289    0.0000 C   0  0  0  0  0  0  0  0  0
    3.2144   -2.5289    0.0000 C   0  0  0  0  0  0  0  0  0
    2.7294   -3.1963    0.0000 C   0  0  0  0  0  0  0  0  0
    3.0650   -3.9500    0.0000 C   0  0  0  0  0  0  0  0  0
    2.5801   -4.6174    0.0000 C   0  0  0  0  0  0  0  0  0
    2.9156   -5.3711    0.0000 O   0  0  0  0  0  0  0  0  0
    2.4307   -6.0386    0.0000 C   0  0  0  0  0  0  0  0  0
    2.7663   -6.7922    0.0000 C   0  0  0  0  0  0  0  0  0
    2.2814   -7.4597    0.0000 N   0  0  0  0  0  0  0  0  0
    2.6169   -8.2133    0.0000 C   0  0  0  0  0  0  0  0  0
    2.1320   -8.8808    0.0000 C   0  0  0  0  0  0  0  0  0
    1.3115   -8.7945    0.0000 C   0  0  0  0  0  0  0  0  0
    0.9759   -8.0409    0.0000 C   0  0  0  0  0  0  0  0  0
    1.4609   -7.3734    0.0000 C   0  0  0  0  0  0  0  0  0
    1.7596   -4.5312    0.0000 C   0  0  0  0  0  0  0  0  0
    1.2747   -5.1986    0.0000 O   0  0  0  0  0  0  0  0  0
    0.4542   -5.1124    0.0000 C   0  0  0  0  0  0  0  0  0
    1.4240   -3.7775    0.0000 C   0  0  0  0  0  0  0  0  0
    1.9090   -3.1101    0.0000 C   0  0  0  0  0  0  0  0  0
    2.9594   -1.7443    0.0000 C   0  0  0  0  0  0  0  0  0
    2.1748   -1.4893    0.0000 O   0  0  0  0  0  0  0  0  0
    2.9124   -0.0218    0.0000 C   0  0  0  0  0  0  0  0  0
    2.9124    0.8032    0.0000 C   0  0  0  0  0  0  0  0  0
    3.6269    1.2157    0.0000 C   0  0  0  0  0  0  0  0  0
    3.6269    2.0407    0.0000 O   0  0  0  0  0  0  0  0  0
    2.9124    2.4532    0.0000 C   0  0  0  0  0  0  0  0  0
  1  2  1  0  0  0  0
  2  3  4  0  0  0  0
  2 30  4  0  0  0  0
  3  4  4  0  0  0  0
  4  5  1  0  0  0  0
  4 28  4  0  0  0  0
  5  6  1  0  0  0  0
  5 26  1  0  0  0  0
  6  7  1  0  0  0  0
  7  8  2  0  0  0  0
  8  9  1  0  0  0  0
  8 26  1  0  0  0  0
  9 10  4  0  0  0  0
  9 25  4  0  0  0  0
 10 11  4  0  0  0  0
 11 12  1  0  0  0  0
 11 21  4  0  0  0  0
 12 13  1  0  0  0  0
 13 14  1  0  0  0  0
 14 15  1  0  0  0  0
 15 16  1  0  0  0  0
 15 20  1  0  0  0  0
 16 17  1  0  0  0  0
 17 18  1  0  0  0  0
 18 19  1  0  0  0  0
 19 20  1  0  0  0  0
 21 22  1  0  0  0  0
 21 24  4  0  0  0  0
 22 23  1  0  0  0  0
 24 25  4  0  0  0  0
 26 27  2  0  0  0  0
 28 29  4  0  0  0  0
 29 30  4  0  0  0  0
 30 31  1  0  0  0  0
 31 32  1  0  0  0  0
M  END
>  <Name_Molregno>
353947

>  <5-HT2A>
5.5

>  <5-HT2C>
8.2

$$$$
353958
  Marvin  02231216192D 0   1.00000     0.00000     0

 33 36  0  0  0  0  0  0  0  0999 V2000
    5.7004    1.4811    0.0000 Cl  0  0  0  0  0  0  0  0  0
    4.9859    1.0686    0.0000 C   0  0  0  0  0  0  0  0  0
    4.9859    0.2436    0.0000 C   0  0  0  0  0  0  0  0  0
    4.2715   -0.1689    0.0000 C   0  0  0  0  0  0  0  0  0
    3.5570    0.2436    0.0000 C   0  0  0  0  0  0  0  0  0
    3.5570    1.0686    0.0000 C   0  0  0  0  0  0  0  0  0
    4.2715    1.4811    0.0000 C   0  0  0  0  0  0  0  0  0
    4.2715    2.3061    0.0000 Cl  0  0  0  0  0  0  0  0  0
    4.2715   -0.9939    0.0000 C   0  0  0  0  0  0  0  0  0
    4.9389   -1.4789    0.0000 C   0  0  0  0  0  0  0  0  0
    4.6840   -2.2635    0.0000 C   0  0  0  0  0  0  0  0  0
    3.8590   -2.2635    0.0000 N   0  0  0  0  0  0  0  0  0
    3.6040   -1.4789    0.0000 C   0  0  0  0  0  0  0  0  0
    2.8194   -1.2239    0.0000 O   0  0  0  0  0  0  0  0  0
    3.3740   -2.9309    0.0000 C   0  0  0  0  0  0  0  0  0
    3.7096   -3.6846    0.0000 C   0  0  0  0  0  0  0  0  0
    3.2247   -4.3520    0.0000 C   0  0  0  0  0  0  0  0  0
    3.5602   -5.1057    0.0000 O   0  0  0  0  0  0  0  0  0
    3.0753   -5.7731    0.0000 C   0  0  0  0  0  0  0  0  0
    3.4109   -6.5268    0.0000 C   0  0  0  0  0  0  0  0  0
    2.9259   -7.1943    0.0000 N   0  0  0  0  0  0  0  0  0
    3.2615   -7.9479    0.0000 C   0  0  0  0  0  0  0  0  0
    2.7766   -8.6154    0.0000 C   0  0  0  0  0  0  0  0  0
    1.9561   -8.5291    0.0000 C   0  0  0  0  0  0  0  0  0
    1.6205   -7.7755    0.0000 C   0  0  0  0  0  0  0  0  0
    2.1055   -7.1080    0.0000 C   0  0  0  0  0  0  0  0  0
    2.4042   -4.2658    0.0000 C   0  0  0  0  0  0  0  0  0
    1.9193   -4.9332    0.0000 N   0  0  0  0  0  0  0  0  0
    1.0988   -4.8470    0.0000 C   0  0  0  0  0  0  0  0  0
    0.7632   -4.0933    0.0000 O   0  0  0  0  0  0  0  0  0
    0.6139   -5.5144    0.0000 C   0  0  0  0  0  0  0  0  0
    2.0686   -3.5121    0.0000 C   0  0  0  0  0  0  0  0  0
    2.5536   -2.8447    0.0000 C   0  0  0  0  0  0  0  0  0
  1  2  1  0  0  0  0
  2  3  4  0  0  0  0
  2  7  4  0  0  0  0
  3  4  4  0  0  0  0
  4  5  4  0  0  0  0
  4  9  1  0  0  0  0
  5  6  4  0  0  0  0
  6  7  4  0  0  0  0
  7  8  1  0  0  0  0
  9 10  2  0  0  0  0
  9 13  1  0  0  0  0
 10 11  1  0  0  0  0
 11 12  1  0  0  0  0
 12 13  1  0  0  0  0
 12 15  1  0  0  0  0
 13 14  2  0  0  0  0
 15 16  4  0  0  0  0
 15 33  4  0  0  0  0
 16 17  4  0  0  0  0
 17 18  1  0  0  0  0
 17 27  4  0  0  0  0
 18 19  1  0  0  0  0
 19 20  1  0  0  0  0
 20 21  1  0  0  0  0
 21 22  1  0  0  0  0
 21 26  1  0  0  0  0
 22 23  1  0  0  0  0
 23 24  1  0  0  0  0
 24 25  1  0  0  0  0
 25 26  1  0  0  0  0
 27 28  1  0  0  0  0
 27 32  4  0  0  0  0
 28 29  1  0  0  0  0
 29 30  2  0  0  0  0
 29 31  1  0  0  0  0
 32 33  4  0  0  0  0
M  END
>  <Name_Molregno>
353958

>  <5-HT2A>
5.8

>  <5-HT2C>
7.3

$$$$
353979
  Marvin  02231216192D 0   1.00000     0.00000     0

 30 33  0  0  0  0  0  0  0  0999 V2000
    5.3737    1.4190    0.0000 F   0  0  0  0  0  0  0  0  0
    4.6592    1.0065    0.0000 C   0  0  0  0  0  0  0  0  0
    4.6592    0.1815    0.0000 C   0  0  0  0  0  0  0  0  0
    3.9447   -0.2310    0.0000 C   0  0  0  0  0  0  0  0  0
    3.9447   -1.0560    0.0000 N   0  0  0  0  0  0  0  0  0
    4.6122   -1.5409    0.0000 C   0  0  0  0  0  0  0  0  0
    4.3572   -2.3256    0.0000 C   0  0  0  0  0  0  0  0  0
    3.5322   -2.3256    0.0000 C   0  0  0  0  0  0  0  0  0
    3.0473   -2.9930    0.0000 C   0  0  0  0  0  0  0  0  0
    3.3829   -3.7467    0.0000 C   0  0  0  0  0  0  0  0  0
    2.8979   -4.4141    0.0000 C   0  0  0  0  0  0  0  0  0
    3.2335   -5.1678    0.0000 O   0  0  0  0  0  0  0  0  0
    2.7486   -5.8352    0.0000 C   0  0  0  0  0  0  0  0  0
    3.0841   -6.5889    0.0000 C   0  0  0  0  0  0  0  0  0
    2.5992   -7.2563    0.0000 N   0  0  0  0  0  0  0  0  0
    2.9348   -8.0100    0.0000 C   0  0  0  0  0  0  0  0  0
    2.4498   -8.6775    0.0000 C   0  0  0  0  0  0  0  0  0
    1.6294   -8.5912    0.0000 C   0  0  0  0  0  0  0  0  0
    1.2938   -7.8375    0.0000 C   0  0  0  0  0  0  0  0  0
    1.7787   -7.1701    0.0000 C   0  0  0  0  0  0  0  0  0
    2.0775   -4.3279    0.0000 C   0  0  0  0  0  0  0  0  0
    1.5925   -4.9953    0.0000 O   0  0  0  0  0  0  0  0  0
    0.7720   -4.9091    0.0000 C   0  0  0  0  0  0  0  0  0
    1.7419   -3.5742    0.0000 C   0  0  0  0  0  0  0  0  0
    2.2268   -2.9068    0.0000 C   0  0  0  0  0  0  0  0  0
    3.2773   -1.5409    0.0000 C   0  0  0  0  0  0  0  0  0
    2.4927   -1.2860    0.0000 O   0  0  0  0  0  0  0  0  0
    3.2302    0.1815    0.0000 C   0  0  0  0  0  0  0  0  0
    3.2302    1.0065    0.0000 C   0  0  0  0  0  0  0  0  0
    3.9447    1.4190    0.0000 C   0  0  0  0  0  0  0  0  0
  1  2  1  0  0  0  0
  2  3  4  0  0  0  0
  2 30  4  0  0  0  0
  3  4  4  0  0  0  0
  4  5  1  0  0  0  0
  4 28  4  0  0  0  0
  5  6  1  0  0  0  0
  5 26  1  0  0  0  0
  6  7  1  0  0  0  0
  7  8  2  0  0  0  0
  8  9  1  0  0  0  0
  8 26  1  0  0  0  0
  9 10  4  0  0  0  0
  9 25  4  0  0  0  0
 10 11  4  0  0  0  0
 11 12  1  0  0  0  0
 11 21  4  0  0  0  0
 12 13  1  0  0  0  0
 13 14  1  0  0  0  0
 14 15  1  0  0  0  0
 15 16  1  0  0  0  0
 15 20  1  0  0  0  0
 16 17  1  0  0  0  0
 17 18  1  0  0  0  0
 18 19  1  0  0  0  0
 19 20  1  0  0  0  0
 21 22  1  0  0  0  0
 21 24  4  0  0  0  0
 22 23  1  0  0  0  0
 24 25  4  0  0  0  0
 26 27  2  0  0  0  0
 28 29  4  0  0  0  0
 29 30  4  0  0  0  0
M  END
>  <Name_Molregno>
353979

>  <5-HT2A>
6

>  <5-HT2C>
8.2

$$$$
353980
  Marvin  02231216192D 0   1.00000     0.00000     0

 31 34  0  0  0  0  0  0  0  0999 V2000
    6.4261    5.2171    0.0000 Cl  0  0  0  0  0  0  0  0  0
    6.4261    4.3921    0.0000 C   0  0  0  0  0  0  0  0  0
    7.1406    3.9796    0.0000 C   0  0  0  0  0  0  0  0  0
    7.1406    3.1546    0.0000 C   0  0  0  0  0  0  0  0  0
    6.4261    2.7421    0.0000 C   0  0  0  0  0  0  0  0  0
    6.4261    1.9171    0.0000 N   0  0  0  0  0  0  0  0  0
    7.0935    1.4322    0.0000 C   0  0  0  0  0  0  0  0  0
    6.8386    0.6476    0.0000 C   0  0  0  0  0  0  0  0  0
    7.3235   -0.0199    0.0000 C   0  0  0  0  0  0  0  0  0
    6.0136    0.6476    0.0000 C   0  0  0  0  0  0  0  0  0
    5.5287   -0.0199    0.0000 C   0  0  0  0  0  0  0  0  0
    5.8642   -0.7735    0.0000 C   0  0  0  0  0  0  0  0  0
    5.3793   -1.4410    0.0000 C   0  0  0  0  0  0  0  0  0
    5.7149   -2.1947    0.0000 O   0  0  0  0  0  0  0  0  0
    5.2299   -2.8621    0.0000 C   0  0  0  0  0  0  0  0  0
    5.5655   -3.6158    0.0000 C   0  0  0  0  0  0  0  0  0
    5.0806   -4.2832    0.0000 N   0  0  0  0  0  0  0  0  0
    5.4161   -5.0369    0.0000 C   0  0  0  0  0  0  0  0  0
    4.9312   -5.7043    0.0000 C   0  0  0  0  0  0  0  0  0
    4.1107   -5.6181    0.0000 C   0  0  0  0  0  0  0  0  0
    3.7752   -4.8644    0.0000 C   0  0  0  0  0  0  0  0  0
    4.2601   -4.1970    0.0000 C   0  0  0  0  0  0  0  0  0
    4.5588   -1.3548    0.0000 C   0  0  0  0  0  0  0  0  0
    4.0739   -2.0222    0.0000 O   0  0  0  0  0  0  0  0  0
    3.2534   -1.9360    0.0000 C   0  0  0  0  0  0  0  0  0
    4.2233   -0.6011    0.0000 C   0  0  0  0  0  0  0  0  0
    4.7082    0.0664    0.0000 C   0  0  0  0  0  0  0  0  0
    5.7587    1.4322    0.0000 C   0  0  0  0  0  0  0  0  0
    4.9740    1.6871    0.0000 O   0  0  0  0  0  0  0  0  0
    5.7116    3.1546    0.0000 C   0  0  0  0  0  0  0  0  0
    5.7116    3.9796    0.0000 C   0  0  0  0  0  0  0  0  0
  1  2  1  0  0  0  0
  2  3  4  0  0  0  0
  2 31  4  0  0  0  0
  3  4  4  0  0  0  0
  4  5  4  0  0  0  0
  5  6  1  0  0  0  0
  5 30  4  0  0  0  0
  6  7  1  0  0  0  0
  6 28  1  0  0  0  0
  7  8  1  0  0  0  0
  8  9  1  0  0  0  0
  8 10  2  0  0  0  0
 10 11  1  0  0  0  0
 10 28  1  0  0  0  0
 11 12  4  0  0  0  0
 11 27  4  0  0  0  0
 12 13  4  0  0  0  0
 13 14  1  0  0  0  0
 13 23  4  0  0  0  0
 14 15  1  0  0  0  0
 15 16  1  0  0  0  0
 16 17  1  0  0  0  0
 17 18  1  0  0  0  0
 17 22  1  0  0  0  0
 18 19  1  0  0  0  0
 19 20  1  0  0  0  0
 20 21  1  0  0  0  0
 21 22  1  0  0  0  0
 23 24  1  0  0  0  0
 23 26  4  0  0  0  0
 24 25  1  0  0  0  0
 26 27  4  0  0  0  0
 28 29  2  0  0  0  0
 30 31  4  0  0  0  0
M  END
>  <Name_Molregno>
353980

>  <5-HT2A>
6.4

>  <5-HT2C>
6.7

$$$$
353991
  Marvin  02231216192D 0   1.00000     0.00000     0

 30 33  0  0  0  0  0  0  0  0999 V2000
    7.1999    4.9494    0.0000 Cl  0  0  0  0  0  0  0  0  0
    6.4854    4.5369    0.0000 C   0  0  0  0  0  0  0  0  0
    6.4854    3.7119    0.0000 C   0  0  0  0  0  0  0  0  0
    5.7710    3.2994    0.0000 C   0  0  0  0  0  0  0  0  0
    5.0565    3.7119    0.0000 C   0  0  0  0  0  0  0  0  0
    5.0565    4.5369    0.0000 C   0  0  0  0  0  0  0  0  0
    5.7710    4.9494    0.0000 C   0  0  0  0  0  0  0  0  0
    5.7710    5.7744    0.0000 Cl  0  0  0  0  0  0  0  0  0
    5.7710    2.4744    0.0000 C   0  0  0  0  0  0  0  0  0
    6.4384    1.9895    0.0000 C   0  0  0  0  0  0  0  0  0
    6.1835    1.2049    0.0000 C   0  0  0  0  0  0  0  0  0
    5.3585    1.2049    0.0000 N   0  0  0  0  0  0  0  0  0
    5.1035    1.9895    0.0000 C   0  0  0  0  0  0  0  0  0
    4.3189    2.2444    0.0000 O   0  0  0  0  0  0  0  0  0
    4.8735    0.5374    0.0000 C   0  0  0  0  0  0  0  0  0
    5.2091   -0.2162    0.0000 C   0  0  0  0  0  0  0  0  0
    4.7242   -0.8837    0.0000 C   0  0  0  0  0  0  0  0  0
    5.0597   -1.6373    0.0000 O   0  0  0  0  0  0  0  0  0
    4.5748   -2.3048    0.0000 C   0  0  0  0  0  0  0  0  0
    4.9104   -3.0585    0.0000 C   0  0  0  0  0  0  0  0  0
    4.4254   -3.7259    0.0000 N   0  0  0  0  0  0  0  0  0
    4.7610   -4.4796    0.0000 C   0  0  0  0  0  0  0  0  0
    4.2761   -5.1470    0.0000 C   0  0  0  0  0  0  0  0  0
    3.4556   -5.0608    0.0000 C   0  0  0  0  0  0  0  0  0
    3.1200   -4.3071    0.0000 C   0  0  0  0  0  0  0  0  0
    3.6050   -3.6397    0.0000 C   0  0  0  0  0  0  0  0  0
    3.9037   -0.7974    0.0000 C   0  0  0  0  0  0  0  0  0
    3.5681   -0.0438    0.0000 C   0  0  0  0  0  0  0  0  0
    4.0531    0.6237    0.0000 C   0  0  0  0  0  0  0  0  0
    3.4188   -1.4649    0.0000 C   0  0  0  0  0  0  0  0  0
  1  2  1  0  0  0  0
  2  3  4  0  0  0  0
  2  7  4  0  0  0  0
  3  4  4  0  0  0  0
  4  5  4  0  0  0  0
  4  9  1  0  0  0  0
  5  6  4  0  0  0  0
  6  7  4  0  0  0  0
  7  8  1  0  0  0  0
  9 10  2  0  0  0  0
  9 13  1  0  0  0  0
 10 11  1  0  0  0  0
 11 12  1  0  0  0  0
 12 13  1  0  0  0  0
 12 15  1  0  0  0  0
 13 14  2  0  0  0  0
 15 16  4  0  0  0  0
 15 29  4  0  0  0  0
 16 17  4  0  0  0  0
 17 18  1  0  0  0  0
 17 27  4  0  0  0  0
 18 19  1  0  0  0  0
 19 20  1  0  0  0  0
 20 21  1  0  0  0  0
 21 22  1  0  0  0  0
 21 26  1  0  0  0  0
 22 23  1  0  0  0  0
 23 24  1  0  0  0  0
 24 25  1  0  0  0  0
 25 26  1  0  0  0  0
 27 28  4  0  0  0  0
 27 30  1  0  0  0  0
 28 29  4  0  0  0  0
M  END
>  <Name_Molregno>
353991

>  <5-HT2A>
5.9

>  <5-HT2C>
6.9

$$$$
354002
  Marvin  02231216192D 0   1.00000     0.00000     0

 31 34  0  0  0  0  0  0  0  0999 V2000
    5.2194    1.3362    0.0000 Cl  0  0  0  0  0  0  0  0  0
    4.5049    0.9237    0.0000 C   0  0  0  0  0  0  0  0  0
    4.5049    0.0987    0.0000 C   0  0  0  0  0  0  0  0  0
    3.7904   -0.3138    0.0000 C   0  0  0  0  0  0  0  0  0
    3.0759    0.0987    0.0000 C   0  0  0  0  0  0  0  0  0
    3.0759    0.9237    0.0000 C   0  0  0  0  0  0  0  0  0
    3.7904    1.3362    0.0000 C   0  0  0  0  0  0  0  0  0
    3.7904    2.1612    0.0000 Cl  0  0  0  0  0  0  0  0  0
    3.7904   -1.1388    0.0000 C   0  0  0  0  0  0  0  0  0
    4.4578   -1.6237    0.0000 C   0  0  0  0  0  0  0  0  0
    4.2029   -2.4084    0.0000 C   0  0  0  0  0  0  0  0  0
    3.3779   -2.4084    0.0000 N   0  0  0  0  0  0  0  0  0
    3.1230   -1.6237    0.0000 C   0  0  0  0  0  0  0  0  0
    2.3383   -1.3688    0.0000 O   0  0  0  0  0  0  0  0  0
    2.8930   -3.0758    0.0000 C   0  0  0  0  0  0  0  0  0
    3.2285   -3.8295    0.0000 C   0  0  0  0  0  0  0  0  0
    2.7436   -4.4969    0.0000 C   0  0  0  0  0  0  0  0  0
    3.0792   -5.2506    0.0000 O   0  0  0  0  0  0  0  0  0
    2.5943   -5.9180    0.0000 C   0  0  0  0  0  0  0  0  0
    2.9298   -6.6717    0.0000 C   0  0  0  0  0  0  0  0  0
    2.4449   -7.3391    0.0000 N   0  0  0  0  0  0  0  0  0
    2.7804   -8.0928    0.0000 C   0  0  0  0  0  0  0  0  0
    2.2955   -8.7602    0.0000 C   0  0  0  0  0  0  0  0  0
    1.4750   -8.6740    0.0000 O   0  0  0  0  0  0  0  0  0
    1.1395   -7.9203    0.0000 C   0  0  0  0  0  0  0  0  0
    1.6244   -7.2529    0.0000 C   0  0  0  0  0  0  0  0  0
    1.9231   -4.4107    0.0000 C   0  0  0  0  0  0  0  0  0
    1.4382   -5.0781    0.0000 O   0  0  0  0  0  0  0  0  0
    0.6177   -4.9919    0.0000 C   0  0  0  0  0  0  0  0  0
    1.5876   -3.6570    0.0000 C   0  0  0  0  0  0  0  0  0
    2.0725   -2.9896    0.0000 C   0  0  0  0  0  0  0  0  0
  1  2  1  0  0  0  0
  2  3  4  0  0  0  0
  2  7  4  0  0  0  0
  3  4  4  0  0  0  0
  4  5  4  0  0  0  0
  4  9  1  0  0  0  0
  5  6  4  0  0  0  0
  6  7  4  0  0  0  0
  7  8  1  0  0  0  0
  9 10  2  0  0  0  0
  9 13  1  0  0  0  0
 10 11  1  0  0  0  0
 11 12  1  0  0  0  0
 12 13  1  0  0  0  0
 12 15  1  0  0  0  0
 13 14  2  0  0  0  0
 15 16  4  0  0  0  0
 15 31  4  0  0  0  0
 16 17  4  0  0  0  0
 17 18  1  0  0  0  0
 17 27  4  0  0  0  0
 18 19  1  0  0  0  0
 19 20  1  0  0  0  0
 20 21  1  0  0  0  0
 21 22  1  0  0  0  0
 21 26  1  0  0  0  0
 22 23  1  0  0  0  0
 23 24  1  0  0  0  0
 24 25  1  0  0  0  0
 25 26  1  0  0  0  0
 27 28  1  0  0  0  0
 27 30  4  0  0  0  0
 28 29  1  0  0  0  0
 30 31  4  0  0  0  0
M  END
>  <Name_Molregno>
354002

>  <5-HT2A>
5.4

>  <5-HT2C>
8.2

$$$$
354015
  Marvin  02231216192D 0   1.00000     0.00000     0

 32 35  0  0  0  0  0  0  0  0999 V2000
   -2.7456    4.9985    0.0000 Cl  0  0  0  0  0  0  0  0  0
   -3.4601    4.5860    0.0000 C   0  0  0  0  0  0  0  0  0
   -3.4601    3.7610    0.0000 C   0  0  0  0  0  0  0  0  0
   -4.1746    3.3485    0.0000 C   0  0  0  0  0  0  0  0  0
   -4.1746    2.5235    0.0000 N   0  0  0  0  0  0  0  0  0
   -3.5071    2.0386    0.0000 C   0  0  0  0  0  0  0  0  0
   -3.7621    1.2540    0.0000 C   0  0  0  0  0  0  0  0  0
   -3.2771    0.5865    0.0000 C   0  0  0  0  0  0  0  0  0
   -4.5871    1.2540    0.0000 C   0  0  0  0  0  0  0  0  0
   -5.0720    0.5865    0.0000 C   0  0  0  0  0  0  0  0  0
   -4.7364   -0.1672    0.0000 C   0  0  0  0  0  0  0  0  0
   -5.2214   -0.8346    0.0000 C   0  0  0  0  0  0  0  0  0
   -4.8858   -1.5883    0.0000 O   0  0  0  0  0  0  0  0  0
   -5.3707   -2.2557    0.0000 C   0  0  0  0  0  0  0  0  0
   -5.0352   -3.0094    0.0000 C   0  0  0  0  0  0  0  0  0
   -5.5201   -3.6768    0.0000 N   0  0  0  0  0  0  0  0  0
   -5.1845   -4.4305    0.0000 C   0  0  0  0  0  0  0  0  0
   -5.6695   -5.0979    0.0000 C   0  0  0  0  0  0  0  0  0
   -6.4899   -5.0117    0.0000 C   0  0  0  0  0  0  0  0  0
   -6.8255   -4.2580    0.0000 C   0  0  0  0  0  0  0  0  0
   -6.3406   -3.5906    0.0000 C   0  0  0  0  0  0  0  0  0
   -6.0418   -0.7484    0.0000 C   0  0  0  0  0  0  0  0  0
   -6.5268   -1.4158    0.0000 O   0  0  0  0  0  0  0  0  0
   -7.3472   -1.3296    0.0000 C   0  0  0  0  0  0  0  0  0
   -6.3774    0.0053    0.0000 C   0  0  0  0  0  0  0  0  0
   -5.8925    0.6727    0.0000 C   0  0  0  0  0  0  0  0  0
   -4.8420    2.0386    0.0000 C   0  0  0  0  0  0  0  0  0
   -5.6266    2.2935    0.0000 O   0  0  0  0  0  0  0  0  0
   -4.8890    3.7610    0.0000 C   0  0  0  0  0  0  0  0  0
   -4.8890    4.5860    0.0000 C   0  0  0  0  0  0  0  0  0
   -4.1746    4.9985    0.0000 C   0  0  0  0  0  0  0  0  0
   -4.1746    5.8235    0.0000 Cl  0  0  0  0  0  0  0  0  0
  1  2  1  0  0  0  0
  2  3  4  0  0  0  0
  2 31  4  0  0  0  0
  3  4  4  0  0  0  0
  4  5  1  0  0  0  0
  4 29  4  0  0  0  0
  5  6  1  0  0  0  0
  5 27  1  0  0  0  0
  6  7  1  0  0  0  0
  7  8  1  0  0  0  0
  7  9  2  0  0  0  0
  9 10  1  0  0  0  0
  9 27  1  0  0  0  0
 10 11  4  0  0  0  0
 10 26  4  0  0  0  0
 11 12  4  0  0  0  0
 12 13  1  0  0  0  0
 12 22  4  0  0  0  0
 13 14  1  0  0  0  0
 14 15  1  0  0  0  0
 15 16  1  0  0  0  0
 16 17  1  0  0  0  0
 16 21  1  0  0  0  0
 17 18  1  0  0  0  0
 18 19  1  0  0  0  0
 19 20  1  0  0  0  0
 20 21  1  0  0  0  0
 22 23  1  0  0  0  0
 22 25  4  0  0  0  0
 23 24  1  0  0  0  0
 25 26  4  0  0  0  0
 27 28  2  0  0  0  0
 29 30  4  0  0  0  0
 30 31  4  0  0  0  0
 31 32  1  0  0  0  0
M  END
>  <Name_Molregno>
354015

>  <5-HT2A>
6.3

>  <5-HT2C>
6.9

$$$$
354026
  Marvin  02231216192D 0   1.00000     0.00000     0

 31 34  0  0  0  0  0  0  0  0999 V2000
    5.2194    1.3362    0.0000 Cl  0  0  0  0  0  0  0  0  0
    4.5049    0.9237    0.0000 C   0  0  0  0  0  0  0  0  0
    4.5049    0.0987    0.0000 C   0  0  0  0  0  0  0  0  0
    3.7904   -0.3138    0.0000 C   0  0  0  0  0  0  0  0  0
    3.0759    0.0987    0.0000 C   0  0  0  0  0  0  0  0  0
    3.0759    0.9237    0.0000 C   0  0  0  0  0  0  0  0  0
    3.7904    1.3362    0.0000 C   0  0  0  0  0  0  0  0  0
    3.7904    2.1612    0.0000 Cl  0  0  0  0  0  0  0  0  0
    3.7904   -1.1388    0.0000 C   0  0  0  0  0  0  0  0  0
    4.4578   -1.6237    0.0000 C   0  0  0  0  0  0  0  0  0
    4.2029   -2.4084    0.0000 C   0  0  0  0  0  0  0  0  0
    3.3779   -2.4084    0.0000 N   0  0  0  0  0  0  0  0  0
    3.1230   -1.6237    0.0000 C   0  0  0  0  0  0  0  0  0
    2.3383   -1.3688    0.0000 O   0  0  0  0  0  0  0  0  0
    2.8930   -3.0758    0.0000 C   0  0  0  0  0  0  0  0  0
    3.2285   -3.8295    0.0000 C   0  0  0  0  0  0  0  0  0
    2.7436   -4.4969    0.0000 C   0  0  0  0  0  0  0  0  0
    3.0792   -5.2506    0.0000 O   0  0  0  0  0  0  0  0  0
    2.5943   -5.9180    0.0000 C   0  0  0  0  0  0  0  0  0
    2.9298   -6.6717    0.0000 C   0  0  0  0  0  0  0  0  0
    2.4449   -7.3391    0.0000 N   0  0  0  0  0  0  0  0  0
    2.7804   -8.0928    0.0000 C   0  0  0  0  0  0  0  0  0
    2.2955   -8.7602    0.0000 C   0  0  0  0  0  0  0  0  0
    1.4750   -8.6740    0.0000 C   0  0  0  0  0  0  0  0  0
    1.1395   -7.9203    0.0000 C   0  0  0  0  0  0  0  0  0
    1.6244   -7.2529    0.0000 C   0  0  0  0  0  0  0  0  0
    1.9231   -4.4107    0.0000 C   0  0  0  0  0  0  0  0  0
    1.4382   -5.0781    0.0000 O   0  0  0  0  0  0  0  0  0
    0.6177   -4.9919    0.0000 C   0  0  0  0  0  0  0  0  0
    1.5876   -3.6570    0.0000 C   0  0  0  0  0  0  0  0  0
    2.0725   -2.9896    0.0000 C   0  0  0  0  0  0  0  0  0
  1  2  1  0  0  0  0
  2  3  4  0  0  0  0
  2  7  4  0  0  0  0
  3  4  4  0  0  0  0
  4  5  4  0  0  0  0
  4  9  1  0  0  0  0
  5  6  4  0  0  0  0
  6  7  4  0  0  0  0
  7  8  1  0  0  0  0
  9 10  2  0  0  0  0
  9 13  1  0  0  0  0
 10 11  1  0  0  0  0
 11 12  1  0  0  0  0
 12 13  1  0  0  0  0
 12 15  1  0  0  0  0
 13 14  2  0  0  0  0
 15 16  4  0  0  0  0
 15 31  4  0  0  0  0
 16 17  4  0  0  0  0
 17 18  1  0  0  0  0
 17 27  4  0  0  0  0
 18 19  1  0  0  0  0
 19 20  1  0  0  0  0
 20 21  1  0  0  0  0
 21 22  1  0  0  0  0
 21 26  1  0  0  0  0
 22 23  1  0  0  0  0
 23 24  1  0  0  0  0
 24 25  1  0  0  0  0
 25 26  1  0  0  0  0
 27 28  1  0  0  0  0
 27 30  4  0  0  0  0
 28 29  1  0  0  0  0
 30 31  4  0  0  0  0
M  END
>  <Name_Molregno>
354026

>  <5-HT1A>
5.5

>  <5-HT1B>
5.5

>  <5-HT1D>
5.5

>  <5-HT2A>
6.2

>  <5-HT2C>
9.1

>  <5-HT6>
5.5

>  <5-HT7>
5.5

>  <Alpha-1A>
5.74

>  <Alpha-1B>
5.74

>  <DOPAMINE D3>
6.34

$$$$
354035
  Marvin  02231216192D 0   1.00000     0.00000     0

 30 33  0  0  0  0  0  0  0  0999 V2000
    5.0422    1.1450    0.0000 Cl  0  0  0  0  0  0  0  0  0
    4.3277    0.7325    0.0000 C   0  0  0  0  0  0  0  0  0
    4.3277   -0.0925    0.0000 C   0  0  0  0  0  0  0  0  0
    3.6132   -0.5050    0.0000 C   0  0  0  0  0  0  0  0  0
    2.8988   -0.0925    0.0000 C   0  0  0  0  0  0  0  0  0
    2.8988    0.7325    0.0000 C   0  0  0  0  0  0  0  0  0
    3.6132    1.1450    0.0000 C   0  0  0  0  0  0  0  0  0
    3.6132    1.9700    0.0000 Cl  0  0  0  0  0  0  0  0  0
    3.6132   -1.3300    0.0000 C   0  0  0  0  0  0  0  0  0
    4.2807   -1.8149    0.0000 C   0  0  0  0  0  0  0  0  0
    4.0257   -2.5995    0.0000 C   0  0  0  0  0  0  0  0  0
    3.2007   -2.5995    0.0000 N   0  0  0  0  0  0  0  0  0
    2.9458   -1.8149    0.0000 C   0  0  0  0  0  0  0  0  0
    2.1612   -1.5600    0.0000 O   0  0  0  0  0  0  0  0  0
    2.7158   -3.2670    0.0000 C   0  0  0  0  0  0  0  0  0
    3.0514   -4.0206    0.0000 C   0  0  0  0  0  0  0  0  0
    2.5665   -4.6881    0.0000 C   0  0  0  0  0  0  0  0  0
    2.9020   -5.4418    0.0000 O   0  0  0  0  0  0  0  0  0
    2.4171   -6.1092    0.0000 C   0  0  0  0  0  0  0  0  0
    2.7526   -6.8629    0.0000 C   0  0  0  0  0  0  0  0  0
    2.2677   -7.5303    0.0000 N   0  0  0  0  0  0  0  0  0
    2.5227   -8.3149    0.0000 C   0  0  0  0  0  0  0  0  0
    1.8552   -8.7999    0.0000 C   0  0  0  0  0  0  0  0  0
    1.1878   -8.3149    0.0000 C   0  0  0  0  0  0  0  0  0
    1.4427   -7.5303    0.0000 C   0  0  0  0  0  0  0  0  0
    1.7460   -4.6018    0.0000 C   0  0  0  0  0  0  0  0  0
    1.2611   -5.2693    0.0000 O   0  0  0  0  0  0  0  0  0
    0.4406   -5.1830    0.0000 C   0  0  0  0  0  0  0  0  0
    1.4104   -3.8482    0.0000 C   0  0  0  0  0  0  0  0  0
    1.8953   -3.1807    0.0000 C   0  0  0  0  0  0  0  0  0
  1  2  1  0  0  0  0
  2  3  4  0  0  0  0
  2  7  4  0  0  0  0
  3  4  4  0  0  0  0
  4  5  4  0  0  0  0
  4  9  1  0  0  0  0
  5  6  4  0  0  0  0
  6  7  4  0  0  0  0
  7  8  1  0  0  0  0
  9 10  2  0  0  0  0
  9 13  1  0  0  0  0
 10 11  1  0  0  0  0
 11 12  1  0  0  0  0
 12 13  1  0  0  0  0
 12 15  1  0  0  0  0
 13 14  2  0  0  0  0
 15 16  4  0  0  0  0
 15 30  4  0  0  0  0
 16 17  4  0  0  0  0
 17 18  1  0  0  0  0
 17 26  4  0  0  0  0
 18 19  1  0  0  0  0
 19 20  1  0  0  0  0
 20 21  1  0  0  0  0
 21 22  1  0  0  0  0
 21 25  1  0  0  0  0
 22 23  1  0  0  0  0
 23 24  1  0  0  0  0
 24 25  1  0  0  0  0
 26 27  1  0  0  0  0
 26 29  4  0  0  0  0
 27 28  1  0  0  0  0
 29 30  4  0  0  0  0
M  END
>  <Name_Molregno>
354035

>  <5-HT2A>
6.2

>  <5-HT2C>
8.4

$$$$
354036
  Marvin  02231216192D 0   1.00000     0.00000     0

 33 36  0  0  0  0  0  0  0  0999 V2000
    5.5945    1.7590    0.0000 Cl  0  0  0  0  0  0  0  0  0
    4.8800    1.3465    0.0000 C   0  0  0  0  0  0  0  0  0
    4.8800    0.5215    0.0000 C   0  0  0  0  0  0  0  0  0
    4.1656    0.1090    0.0000 C   0  0  0  0  0  0  0  0  0
    3.4511    0.5215    0.0000 C   0  0  0  0  0  0  0  0  0
    3.4511    1.3465    0.0000 C   0  0  0  0  0  0  0  0  0
    4.1656    1.7590    0.0000 C   0  0  0  0  0  0  0  0  0
    4.1656    2.5840    0.0000 Cl  0  0  0  0  0  0  0  0  0
    4.1656   -0.7160    0.0000 C   0  0  0  0  0  0  0  0  0
    4.8330   -1.2009    0.0000 C   0  0  0  0  0  0  0  0  0
    4.5781   -1.9855    0.0000 C   0  0  0  0  0  0  0  0  0
    3.7531   -1.9855    0.0000 N   0  0  0  0  0  0  0  0  0
    3.4981   -1.2009    0.0000 C   0  0  0  0  0  0  0  0  0
    2.7135   -0.9459    0.0000 O   0  0  0  0  0  0  0  0  0
    3.2681   -2.6529    0.0000 C   0  0  0  0  0  0  0  0  0
    3.6037   -3.4066    0.0000 C   0  0  0  0  0  0  0  0  0
    3.1188   -4.0740    0.0000 C   0  0  0  0  0  0  0  0  0
    3.4543   -4.8277    0.0000 O   0  0  0  0  0  0  0  0  0
    2.9694   -5.4952    0.0000 C   0  0  0  0  0  0  0  0  0
    3.3050   -6.2488    0.0000 C   0  0  0  0  0  0  0  0  0
    2.8201   -6.9163    0.0000 N   0  0  0  0  0  0  0  0  0
    3.1556   -7.6700    0.0000 C   0  0  0  0  0  0  0  0  0
    2.6707   -8.3374    0.0000 C   0  0  0  0  0  0  0  0  0
    1.8502   -8.2512    0.0000 C   0  0  0  0  0  0  0  0  0
    1.9078   -9.0741    0.0000 F   0  0  0  0  0  0  0  0  0
    1.0497   -8.4507    0.0000 F   0  0  0  0  0  0  0  0  0
    1.5146   -7.4975    0.0000 C   0  0  0  0  0  0  0  0  0
    1.9996   -6.8300    0.0000 C   0  0  0  0  0  0  0  0  0
    2.2983   -3.9878    0.0000 C   0  0  0  0  0  0  0  0  0
    1.8134   -4.6553    0.0000 O   0  0  0  0  0  0  0  0  0
    0.9929   -4.5690    0.0000 C   0  0  0  0  0  0  0  0  0
    1.9627   -3.2341    0.0000 C   0  0  0  0  0  0  0  0  0
    2.4477   -2.5667    0.0000 C   0  0  0  0  0  0  0  0  0
  1  2  1  0  0  0  0
  2  3  4  0  0  0  0
  2  7  4  0  0  0  0
  3  4  4  0  0  0  0
  4  5  4  0  0  0  0
  4  9  1  0  0  0  0
  5  6  4  0  0  0  0
  6  7  4  0  0  0  0
  7  8  1  0  0  0  0
  9 10  2  0  0  0  0
  9 13  1  0  0  0  0
 10 11  1  0  0  0  0
 11 12  1  0  0  0  0
 12 13  1  0  0  0  0
 12 15  1  0  0  0  0
 13 14  2  0  0  0  0
 15 16  4  0  0  0  0
 15 33  4  0  0  0  0
 16 17  4  0  0  0  0
 17 18  1  0  0  0  0
 17 29  4  0  0  0  0
 18 19  1  0  0  0  0
 19 20  1  0  0  0  0
 20 21  1  0  0  0  0
 21 22  1  0  0  0  0
 21 28  1  0  0  0  0
 22 23  1  0  0  0  0
 23 24  1  0  0  0  0
 24 25  1  0  0  0  0
 24 26  1  0  0  0  0
 24 27  1  0  0  0  0
 27 28  1  0  0  0  0
 29 30  1  0  0  0  0
 29 32  4  0  0  0  0
 30 31  1  0  0  0  0
 32 33  4  0  0  0  0
M  END
>  <Name_Molregno>
354036

>  <5-HT2A>
5.3

>  <5-HT2C>
8.1

$$$$
354054
  Marvin  02231216192D 0   1.00000     0.00000     0

 32 35  0  0  1  0  0  0  0  0999 V2000
    5.0558    1.2157    0.0000 F   0  0  0  0  0  0  0  0  0
    4.3413    0.8032    0.0000 C   0  0  0  0  0  0  0  0  0
    4.3413   -0.0218    0.0000 C   0  0  0  0  0  0  0  0  0
    3.6269   -0.4343    0.0000 C   0  0  0  0  0  0  0  0  0
    3.6269   -1.2593    0.0000 N   0  0  0  0  0  0  0  0  0
    4.2943   -1.7443    0.0000 C   0  0  0  0  0  0  0  0  0
    4.0394   -2.5289    0.0000 C   0  0  0  0  0  0  0  0  0
    3.2144   -2.5289    0.0000 C   0  0  0  0  0  0  0  0  0
    2.7294   -3.1963    0.0000 C   0  0  0  0  0  0  0  0  0
    3.0650   -3.9500    0.0000 C   0  0  0  0  0  0  0  0  0
    2.5801   -4.6174    0.0000 C   0  0  0  0  0  0  0  0  0
    2.9156   -5.3711    0.0000 O   0  0  0  0  0  0  0  0  0
    2.4307   -6.0386    0.0000 C   0  0  0  0  0  0  0  0  0
    2.7663   -6.7922    0.0000 C   0  0  0  0  0  0  0  0  0
    2.2814   -7.4597    0.0000 N   0  0  0  0  0  0  0  0  0
    2.6169   -8.2133    0.0000 C   0  0  0  0  0  0  0  0  0
    2.1320   -8.8808    0.0000 C   0  0  0  0  0  0  0  0  0
    1.3115   -8.7945    0.0000 C   0  0  0  0  0  0  0  0  0
    0.9759   -8.0409    0.0000 C   0  0  0  0  0  0  0  0  0
    1.4609   -7.3734    0.0000 C   0  0  0  0  0  0  0  0  0
    1.7596   -4.5312    0.0000 C   0  0  0  0  0  0  0  0  0
    1.2747   -5.1986    0.0000 O   0  0  0  0  0  0  0  0  0
    0.4542   -5.1124    0.0000 C   0  0  0  0  0  0  0  0  0
    1.4240   -3.7775    0.0000 C   0  0  0  0  0  0  0  0  0
    1.9090   -3.1101    0.0000 C   0  0  0  0  0  0  0  0  0
    2.9594   -1.7443    0.0000 C   0  0  0  0  0  0  0  0  0
    2.1748   -1.4893    0.0000 O   0  0  0  0  0  0  0  0  0
    2.9124   -0.0218    0.0000 C   0  0  0  0  0  0  0  0  0
    2.9124    0.8032    0.0000 C   0  0  0  0  0  0  0  0  0
    3.6269    1.2157    0.0000 C   0  0  0  0  0  0  0  0  0
    3.6269    2.0407    0.0000 O   0  0  0  0  0  0  0  0  0
    2.9124    2.4532    0.0000 C   0  0  0  0  0  0  0  0  0
  1  2  1  0  0  0  0
  2  3  4  0  0  0  0
  2 30  4  0  0  0  0
  3  4  4  0  0  0  0
  4  5  1  0  0  0  0
  4 28  4  0  0  0  0
  5  6  1  0  0  0  0
  5 26  1  0  0  0  0
  6  7  1  0  0  0  0
  7  8  1  0  0  0  0
  8  9  1  0  0  0  0
  8 26  1  0  0  0  0
  9 10  4  0  0  0  0
  9 25  4  0  0  0  0
 10 11  4  0  0  0  0
 11 12  1  0  0  0  0
 11 21  4  0  0  0  0
 12 13  1  0  0  0  0
 13 14  1  0  0  0  0
 14 15  1  0  0  0  0
 15 16  1  0  0  0  0
 15 20  1  0  0  0  0
 16 17  1  0  0  0  0
 17 18  1  0  0  0  0
 18 19  1  0  0  0  0
 19 20  1  0  0  0  0
 21 22  1  0  0  0  0
 21 24  4  0  0  0  0
 22 23  1  0  0  0  0
 24 25  4  0  0  0  0
 26 27  2  0  0  0  0
 28 29  4  0  0  0  0
 29 30  4  0  0  0  0
 30 31  1  0  0  0  0
 31 32  1  0  0  0  0
M  END
>  <Name_Molregno>
354054

>  <5-HT2A>
6

>  <5-HT2C>
7.8

$$$$
354055
  Marvin  02231216192D 0   1.00000     0.00000     0

 31 34  0  0  1  0  0  0  0  0999 V2000
    5.2194    1.3362    0.0000 Cl  0  0  0  0  0  0  0  0  0
    4.5049    0.9237    0.0000 C   0  0  0  0  0  0  0  0  0
    4.5049    0.0987    0.0000 C   0  0  0  0  0  0  0  0  0
    3.7904   -0.3138    0.0000 C   0  0  0  0  0  0  0  0  0
    3.7904   -1.1388    0.0000 N   0  0  0  0  0  0  0  0  0
    4.4578   -1.6237    0.0000 C   0  0  0  0  0  0  0  0  0
    4.2029   -2.4084    0.0000 C   0  0  0  0  0  0  0  0  0
    3.3779   -2.4084    0.0000 C   0  0  0  0  0  0  0  0  0
    2.8930   -3.0758    0.0000 C   0  0  0  0  0  0  0  0  0
    3.2285   -3.8295    0.0000 C   0  0  0  0  0  0  0  0  0
    2.7436   -4.4969    0.0000 C   0  0  0  0  0  0  0  0  0
    3.0792   -5.2506    0.0000 O   0  0  0  0  0  0  0  0  0
    2.5943   -5.9180    0.0000 C   0  0  0  0  0  0  0  0  0
    2.9298   -6.6717    0.0000 C   0  0  0  0  0  0  0  0  0
    2.4449   -7.3391    0.0000 N   0  0  0  0  0  0  0  0  0
    2.7804   -8.0928    0.0000 C   0  0  0  0  0  0  0  0  0
    2.2955   -8.7602    0.0000 C   0  0  0  0  0  0  0  0  0
    1.4750   -8.6740    0.0000 C   0  0  0  0  0  0  0  0  0
    1.1395   -7.9203    0.0000 C   0  0  0  0  0  0  0  0  0
    1.6244   -7.2529    0.0000 C   0  0  0  0  0  0  0  0  0
    1.9231   -4.4107    0.0000 C   0  0  0  0  0  0  0  0  0
    1.4382   -5.0781    0.0000 O   0  0  0  0  0  0  0  0  0
    0.6177   -4.9919    0.0000 C   0  0  0  0  0  0  0  0  0
    1.5876   -3.6570    0.0000 C   0  0  0  0  0  0  0  0  0
    2.0725   -2.9896    0.0000 C   0  0  0  0  0  0  0  0  0
    3.1230   -1.6237    0.0000 C   0  0  0  0  0  0  0  0  0
    2.3383   -1.3688    0.0000 O   0  0  0  0  0  0  0  0  0
    3.0759    0.0987    0.0000 C   0  0  0  0  0  0  0  0  0
    3.0759    0.9237    0.0000 C   0  0  0  0  0  0  0  0  0
    3.7904    1.3362    0.0000 C   0  0  0  0  0  0  0  0  0
    3.7904    2.1612    0.0000 Cl  0  0  0  0  0  0  0  0  0
  1  2  1  0  0  0  0
  2  3  4  0  0  0  0
  2 30  4  0  0  0  0
  3  4  4  0  0  0  0
  4  5  1  0  0  0  0
  4 28  4  0  0  0  0
  5  6  1  0  0  0  0
  5 26  1  0  0  0  0
  6  7  1  0  0  0  0
  7  8  1  0  0  0  0
  8  9  1  0  0  0  0
  8 26  1  0  0  0  0
  9 10  4  0  0  0  0
  9 25  4  0  0  0  0
 10 11  4  0  0  0  0
 11 12  1  0  0  0  0
 11 21  4  0  0  0  0
 12 13  1  0  0  0  0
 13 14  1  0  0  0  0
 14 15  1  0  0  0  0
 15 16  1  0  0  0  0
 15 20  1  0  0  0  0
 16 17  1  0  0  0  0
 17 18  1  0  0  0  0
 18 19  1  0  0  0  0
 19 20  1  0  0  0  0
 21 22  1  0  0  0  0
 21 24  4  0  0  0  0
 22 23  1  0  0  0  0
 24 25  4  0  0  0  0
 26 27  2  0  0  0  0
 28 29  4  0  0  0  0
 29 30  4  0  0  0  0
 30 31  1  0  0  0  0
M  END
>  <Name_Molregno>
354055

>  <5-HT2A>
6.1

>  <5-HT2C>
8

$$$$
354067
  Marvin  02231216192D 0   1.00000     0.00000     0

 30 33  0  0  0  0  0  0  0  0999 V2000
    3.3464    2.2331    0.0000 Cl  0  0  0  0  0  0  0  0  0
    3.3464    1.4081    0.0000 C   0  0  0  0  0  0  0  0  0
    4.0608    0.9956    0.0000 C   0  0  0  0  0  0  0  0  0
    4.0608    0.1706    0.0000 C   0  0  0  0  0  0  0  0  0
    3.3464   -0.2419    0.0000 C   0  0  0  0  0  0  0  0  0
    3.3464   -1.0669    0.0000 N   0  0  0  0  0  0  0  0  0
    4.0138   -1.5518    0.0000 C   0  0  0  0  0  0  0  0  0
    3.7589   -2.3365    0.0000 C   0  0  0  0  0  0  0  0  0
    2.9339   -2.3365    0.0000 C   0  0  0  0  0  0  0  0  0
    2.4489   -3.0039    0.0000 C   0  0  0  0  0  0  0  0  0
    2.7845   -3.7576    0.0000 C   0  0  0  0  0  0  0  0  0
    2.2996   -4.4250    0.0000 C   0  0  0  0  0  0  0  0  0
    2.6351   -5.1787    0.0000 Cl  0  0  0  0  0  0  0  0  0
    1.4791   -4.3388    0.0000 C   0  0  0  0  0  0  0  0  0
    0.9942   -5.0062    0.0000 Cl  0  0  0  0  0  0  0  0  0
    1.1435   -3.5851    0.0000 C   0  0  0  0  0  0  0  0  0
    1.6285   -2.9177    0.0000 C   0  0  0  0  0  0  0  0  0
    2.6789   -1.5518    0.0000 C   0  0  0  0  0  0  0  0  0
    1.8943   -1.2969    0.0000 O   0  0  0  0  0  0  0  0  0
    2.6319    0.1706    0.0000 C   0  0  0  0  0  0  0  0  0
    2.6319    0.9956    0.0000 C   0  0  0  0  0  0  0  0  0
    1.9174    1.4081    0.0000 O   0  0  0  0  0  0  0  0  0
    1.9174    2.2331    0.0000 C   0  0  0  0  0  0  0  0  0
    1.2029    2.6456    0.0000 C   0  0  0  0  0  0  0  0  0
    1.2029    3.4706    0.0000 N   0  0  0  0  0  0  0  0  0
    0.4885    3.8831    0.0000 C   0  0  0  0  0  0  0  0  0
    0.4885    4.7081    0.0000 C   0  0  0  0  0  0  0  0  0
    1.2029    5.1206    0.0000 C   0  0  0  0  0  0  0  0  0
    1.9174    4.7081    0.0000 C   0  0  0  0  0  0  0  0  0
    1.9174    3.8831    0.0000 C   0  0  0  0  0  0  0  0  0
  1  2  1  0  0  0  0
  2  3  4  0  0  0  0
  2 21  4  0  0  0  0
  3  4  4  0  0  0  0
  4  5  4  0  0  0  0
  5  6  1  0  0  0  0
  5 20  4  0  0  0  0
  6  7  1  0  0  0  0
  6 18  1  0  0  0  0
  7  8  1  0  0  0  0
  8  9  2  0  0  0  0
  9 10  1  0  0  0  0
  9 18  1  0  0  0  0
 10 11  4  0  0  0  0
 10 17  4  0  0  0  0
 11 12  4  0  0  0  0
 12 13  1  0  0  0  0
 12 14  4  0  0  0  0
 14 15  1  0  0  0  0
 14 16  4  0  0  0  0
 16 17  4  0  0  0  0
 18 19  2  0  0  0  0
 20 21  4  0  0  0  0
 21 22  1  0  0  0  0
 22 23  1  0  0  0  0
 23 24  1  0  0  0  0
 24 25  1  0  0  0  0
 25 26  1  0  0  0  0
 25 30  1  0  0  0  0
 26 27  1  0  0  0  0
 27 28  1  0  0  0  0
 28 29  1  0  0  0  0
 29 30  1  0  0  0  0
M  END
>  <Name_Molregno>
354067

>  <5-HT2A>
5.9

>  <5-HT2C>
7.2

$$$$
354077
  Marvin  02231216192D 0   1.00000     0.00000     0

 32 35  0  0  0  0  0  0  0  0999 V2000
    5.4211    1.5650    0.0000 Cl  0  0  0  0  0  0  0  0  0
    4.7066    1.1525    0.0000 C   0  0  0  0  0  0  0  0  0
    4.7066    0.3275    0.0000 C   0  0  0  0  0  0  0  0  0
    3.9921   -0.0850    0.0000 C   0  0  0  0  0  0  0  0  0
    3.2776    0.3275    0.0000 C   0  0  0  0  0  0  0  0  0
    3.2776    1.1525    0.0000 C   0  0  0  0  0  0  0  0  0
    3.9921    1.5650    0.0000 C   0  0  0  0  0  0  0  0  0
    3.9921    2.3900    0.0000 Cl  0  0  0  0  0  0  0  0  0
    3.9921   -0.9100    0.0000 C   0  0  0  0  0  0  0  0  0
    4.6596   -1.3950    0.0000 C   0  0  0  0  0  0  0  0  0
    4.4046   -2.1796    0.0000 C   0  0  0  0  0  0  0  0  0
    3.5796   -2.1796    0.0000 N   0  0  0  0  0  0  0  0  0
    3.3247   -1.3950    0.0000 C   0  0  0  0  0  0  0  0  0
    2.5401   -1.1400    0.0000 O   0  0  0  0  0  0  0  0  0
    3.0947   -2.8470    0.0000 C   0  0  0  0  0  0  0  0  0
    3.4303   -3.6007    0.0000 C   0  0  0  0  0  0  0  0  0
    2.9453   -4.2681    0.0000 C   0  0  0  0  0  0  0  0  0
    3.2809   -5.0218    0.0000 O   0  0  0  0  0  0  0  0  0
    2.7960   -5.6893    0.0000 C   0  0  0  0  0  0  0  0  0
    3.1315   -6.4429    0.0000 C   0  0  0  0  0  0  0  0  0
    2.6466   -7.1104    0.0000 N   0  0  0  0  0  0  0  0  0
    2.9822   -7.8640    0.0000 C   0  0  0  0  0  0  0  0  0
    2.4972   -8.5315    0.0000 C   0  0  0  0  0  0  0  0  0
    1.6768   -8.4453    0.0000 C   0  0  0  0  0  0  0  0  0
    1.3412   -7.6916    0.0000 C   0  0  0  0  0  0  0  0  0
    1.8261   -7.0241    0.0000 C   0  0  0  0  0  0  0  0  0
    1.1918   -9.1127    0.0000 C   0  0  0  0  0  0  0  0  0
    2.1248   -4.1819    0.0000 C   0  0  0  0  0  0  0  0  0
    1.6399   -4.8493    0.0000 O   0  0  0  0  0  0  0  0  0
    0.8194   -4.7631    0.0000 C   0  0  0  0  0  0  0  0  0
    1.7893   -3.4282    0.0000 C   0  0  0  0  0  0  0  0  0
    2.2742   -2.7608    0.0000 C   0  0  0  0  0  0  0  0  0
  1  2  1  0  0  0  0
  2  3  4  0  0  0  0
  2  7  4  0  0  0  0
  3  4  4  0  0  0  0
  4  5  4  0  0  0  0
  4  9  1  0  0  0  0
  5  6  4  0  0  0  0
  6  7  4  0  0  0  0
  7  8  1  0  0  0  0
  9 10  2  0  0  0  0
  9 13  1  0  0  0  0
 10 11  1  0  0  0  0
 11 12  1  0  0  0  0
 12 13  1  0  0  0  0
 12 15  1  0  0  0  0
 13 14  2  0  0  0  0
 15 16  4  0  0  0  0
 15 32  4  0  0  0  0
 16 17  4  0  0  0  0
 17 18  1  0  0  0  0
 17 28  4  0  0  0  0
 18 19  1  0  0  0  0
 19 20  1  0  0  0  0
 20 21  1  0  0  0  0
 21 22  1  0  0  0  0
 21 26  1  0  0  0  0
 22 23  1  0  0  0  0
 23 24  1  0  0  0  0
 24 25  1  0  0  0  0
 24 27  1  0  0  0  0
 25 26  1  0  0  0  0
 28 29  1  0  0  0  0
 28 31  4  0  0  0  0
 29 30  1  0  0  0  0
 31 32  4  0  0  0  0
M  END
>  <Name_Molregno>
354077

>  <5-HT2A>
6.1

>  <5-HT2C>
8.5

$$$$
354078
  Marvin  02231216192D 0   1.00000     0.00000     0

 33 36  0  0  0  0  0  0  0  0999 V2000
    5.5979    1.7638    0.0000 Cl  0  0  0  0  0  0  0  0  0
    4.8835    1.3513    0.0000 C   0  0  0  0  0  0  0  0  0
    4.8835    0.5263    0.0000 C   0  0  0  0  0  0  0  0  0
    4.1690    0.1138    0.0000 C   0  0  0  0  0  0  0  0  0
    3.4545    0.5263    0.0000 C   0  0  0  0  0  0  0  0  0
    3.4545    1.3513    0.0000 C   0  0  0  0  0  0  0  0  0
    4.1690    1.7638    0.0000 C   0  0  0  0  0  0  0  0  0
    4.1690    2.5888    0.0000 Cl  0  0  0  0  0  0  0  0  0
    4.1690   -0.7112    0.0000 C   0  0  0  0  0  0  0  0  0
    4.8364   -1.1961    0.0000 C   0  0  0  0  0  0  0  0  0
    4.5815   -1.9808    0.0000 C   0  0  0  0  0  0  0  0  0
    3.7565   -1.9808    0.0000 N   0  0  0  0  0  0  0  0  0
    3.5016   -1.1961    0.0000 C   0  0  0  0  0  0  0  0  0
    2.7169   -0.9412    0.0000 O   0  0  0  0  0  0  0  0  0
    3.2716   -2.6482    0.0000 C   0  0  0  0  0  0  0  0  0
    3.6071   -3.4019    0.0000 C   0  0  0  0  0  0  0  0  0
    3.1222   -4.0693    0.0000 C   0  0  0  0  0  0  0  0  0
    3.4578   -4.8230    0.0000 O   0  0  0  0  0  0  0  0  0
    2.9729   -5.4904    0.0000 C   0  0  0  0  0  0  0  0  0
    3.3084   -6.2441    0.0000 C   0  0  0  0  0  0  0  0  0
    2.8235   -6.9115    0.0000 N   0  0  0  0  0  0  0  0  0
    3.1590   -7.6652    0.0000 C   0  0  0  0  0  0  0  0  0
    2.6741   -8.3327    0.0000 C   0  0  0  0  0  0  0  0  0
    1.8536   -8.2464    0.0000 C   0  0  0  0  0  0  0  0  0
    1.5181   -7.4928    0.0000 C   0  0  0  0  0  0  0  0  0
    2.0030   -6.8253    0.0000 C   0  0  0  0  0  0  0  0  0
    1.7388   -9.0634    0.0000 C   0  0  0  0  0  0  0  0  0
    1.1121   -8.6081    0.0000 C   0  0  0  0  0  0  0  0  0
    2.3017   -3.9831    0.0000 C   0  0  0  0  0  0  0  0  0
    1.8168   -4.6505    0.0000 O   0  0  0  0  0  0  0  0  0
    0.9963   -4.5643    0.0000 C   0  0  0  0  0  0  0  0  0
    1.9662   -3.2294    0.0000 C   0  0  0  0  0  0  0  0  0
    2.4511   -2.5620    0.0000 C   0  0  0  0  0  0  0  0  0
  1  2  1  0  0  0  0
  2  3  4  0  0  0  0
  2  7  4  0  0  0  0
  3  4  4  0  0  0  0
  4  5  4  0  0  0  0
  4  9  1  0  0  0  0
  5  6  4  0  0  0  0
  6  7  4  0  0  0  0
  7  8  1  0  0  0  0
  9 10  2  0  0  0  0
  9 13  1  0  0  0  0
 10 11  1  0  0  0  0
 11 12  1  0  0  0  0
 12 13  1  0  0  0  0
 12 15  1  0  0  0  0
 13 14  2  0  0  0  0
 15 16  4  0  0  0  0
 15 33  4  0  0  0  0
 16 17  4  0  0  0  0
 17 18  1  0  0  0  0
 17 29  4  0  0  0  0
 18 19  1  0  0  0  0
 19 20  1  0  0  0  0
 20 21  1  0  0  0  0
 21 22  1  0  0  0  0
 21 26  1  0  0  0  0
 22 23  1  0  0  0  0
 23 24  1  0  0  0  0
 24 25  1  0  0  0  0
 24 27  1  0  0  0  0
 24 28  1  0  0  0  0
 25 26  1  0  0  0  0
 29 30  1  0  0  0  0
 29 32  4  0  0  0  0
 30 31  1  0  0  0  0
 32 33  4  0  0  0  0
M  END
>  <Name_Molregno>
354078

>  <5-HT2A>
5.2

>  <5-HT2C>
8.4

$$$$
354088
  Marvin  02231216192D 0   1.00000     0.00000     0

 32 35  0  0  1  0  0  0  0  0999 V2000
    4.2077   -5.8148    0.0000 Cl  0  0  0  0  0  0  0  0  0
    4.5433   -5.0612    0.0000 C   0  0  0  0  0  0  0  0  0
    4.0583   -4.3937    0.0000 C   0  0  0  0  0  0  0  0  0
    4.3939   -3.6400    0.0000 C   0  0  0  0  0  0  0  0  0
    3.9090   -2.9726    0.0000 N   0  0  0  0  0  0  0  0  0
    3.0840   -2.9726    0.0000 C   0  0  0  0  0  0  0  0  0
    2.8290   -2.1880    0.0000 C   0  0  0  0  0  0  0  0  0
    3.4965   -1.7031    0.0000 C   0  0  0  0  0  0  0  0  0
    2.9444   -1.0900    0.0000 C   0  0  0  0  0  0  0  0  0
    4.0485   -1.0900    0.0000 C   0  0  0  0  0  0  0  0  0
    3.7936   -0.3053    0.0000 C   0  0  0  0  0  0  0  0  0
    4.3456    0.3078    0.0000 C   0  0  0  0  0  0  0  0  0
    4.0906    1.0924    0.0000 O   0  0  0  0  0  0  0  0  0
    4.6427    1.7055    0.0000 C   0  0  0  0  0  0  0  0  0
    4.3877    2.4901    0.0000 C   0  0  0  0  0  0  0  0  0
    4.9398    3.1032    0.0000 N   0  0  0  0  0  0  0  0  0
    4.6848    3.8878    0.0000 C   0  0  0  0  0  0  0  0  0
    5.2369    4.5009    0.0000 C   0  0  0  0  0  0  0  0  0
    6.0438    4.3294    0.0000 C   0  0  0  0  0  0  0  0  0
    6.2988    3.5448    0.0000 C   0  0  0  0  0  0  0  0  0
    5.7467    2.9317    0.0000 C   0  0  0  0  0  0  0  0  0
    5.1526    0.1362    0.0000 C   0  0  0  0  0  0  0  0  0
    5.7046    0.7493    0.0000 O   0  0  0  0  0  0  0  0  0
    6.5116    0.5778    0.0000 C   0  0  0  0  0  0  0  0  0
    5.4075   -0.6484    0.0000 C   0  0  0  0  0  0  0  0  0
    4.8555   -1.2615    0.0000 C   0  0  0  0  0  0  0  0  0
    4.1639   -2.1880    0.0000 C   0  0  0  0  0  0  0  0  0
    4.9485   -1.9330    0.0000 O   0  0  0  0  0  0  0  0  0
    5.2144   -3.5538    0.0000 C   0  0  0  0  0  0  0  0  0
    5.6993   -4.2212    0.0000 C   0  0  0  0  0  0  0  0  0
    5.3637   -4.9749    0.0000 C   0  0  0  0  0  0  0  0  0
    5.8487   -5.6424    0.0000 Cl  0  0  0  0  0  0  0  0  0
  1  2  1  0  0  0  0
  2  3  4  0  0  0  0
  2 31  4  0  0  0  0
  3  4  4  0  0  0  0
  4  5  1  0  0  0  0
  4 29  4  0  0  0  0
  5  6  1  0  0  0  0
  5 27  1  0  0  0  0
  6  7  1  0  0  0  0
  7  8  1  0  0  0  0
  8  9  1  0  0  0  0
  8 10  1  0  0  0  0
  8 27  1  0  0  0  0
 10 11  4  0  0  0  0
 10 26  4  0  0  0  0
 11 12  4  0  0  0  0
 12 13  1  0  0  0  0
 12 22  4  0  0  0  0
 13 14  1  0  0  0  0
 14 15  1  0  0  0  0
 15 16  1  0  0  0  0
 16 17  1  0  0  0  0
 16 21  1  0  0  0  0
 17 18  1  0  0  0  0
 18 19  1  0  0  0  0
 19 20  1  0  0  0  0
 20 21  1  0  0  0  0
 22 23  1  0  0  0  0
 22 25  4  0  0  0  0
 23 24  1  0  0  0  0
 25 26  4  0  0  0  0
 27 28  2  0  0  0  0
 29 30  4  0  0  0  0
 30 31  4  0  0  0  0
 31 32  1  0  0  0  0
M  END
>  <Name_Molregno>
354088

>  <5-HT2A>
6.3

>  <5-HT2C>
8

$$$$
354089
  Marvin  02231216192D 0   1.00000     0.00000     0

 30 33  0  0  1  0  0  0  0  0999 V2000
    5.3737    1.4190    0.0000 F   0  0  0  0  0  0  0  0  0
    4.6592    1.0065    0.0000 C   0  0  0  0  0  0  0  0  0
    4.6592    0.1815    0.0000 C   0  0  0  0  0  0  0  0  0
    3.9447   -0.2310    0.0000 C   0  0  0  0  0  0  0  0  0
    3.9447   -1.0560    0.0000 N   0  0  0  0  0  0  0  0  0
    4.6122   -1.5409    0.0000 C   0  0  0  0  0  0  0  0  0
    4.3572   -2.3256    0.0000 C   0  0  0  0  0  0  0  0  0
    3.5322   -2.3256    0.0000 C   0  0  0  0  0  0  0  0  0
    3.0473   -2.9930    0.0000 C   0  0  0  0  0  0  0  0  0
    3.3829   -3.7467    0.0000 C   0  0  0  0  0  0  0  0  0
    2.8979   -4.4141    0.0000 C   0  0  0  0  0  0  0  0  0
    3.2335   -5.1678    0.0000 O   0  0  0  0  0  0  0  0  0
    2.7486   -5.8352    0.0000 C   0  0  0  0  0  0  0  0  0
    3.0841   -6.5889    0.0000 C   0  0  0  0  0  0  0  0  0
    2.5992   -7.2563    0.0000 N   0  0  0  0  0  0  0  0  0
    2.9348   -8.0100    0.0000 C   0  0  0  0  0  0  0  0  0
    2.4498   -8.6775    0.0000 C   0  0  0  0  0  0  0  0  0
    1.6294   -8.5912    0.0000 C   0  0  0  0  0  0  0  0  0
    1.2938   -7.8375    0.0000 C   0  0  0  0  0  0  0  0  0
    1.7787   -7.1701    0.0000 C   0  0  0  0  0  0  0  0  0
    2.0775   -4.3279    0.0000 C   0  0  0  0  0  0  0  0  0
    1.5925   -4.9953    0.0000 O   0  0  0  0  0  0  0  0  0
    0.7720   -4.9091    0.0000 C   0  0  0  0  0  0  0  0  0
    1.7419   -3.5742    0.0000 C   0  0  0  0  0  0  0  0  0
    2.2268   -2.9068    0.0000 C   0  0  0  0  0  0  0  0  0
    3.2773   -1.5409    0.0000 C   0  0  0  0  0  0  0  0  0
    2.4927   -1.2860    0.0000 O   0  0  0  0  0  0  0  0  0
    3.2302    0.1815    0.0000 C   0  0  0  0  0  0  0  0  0
    3.2302    1.0065    0.0000 C   0  0  0  0  0  0  0  0  0
    3.9447    1.4190    0.0000 C   0  0  0  0  0  0  0  0  0
  1  2  1  0  0  0  0
  2  3  4  0  0  0  0
  2 30  4  0  0  0  0
  3  4  4  0  0  0  0
  4  5  1  0  0  0  0
  4 28  4  0  0  0  0
  5  6  1  0  0  0  0
  5 26  1  0  0  0  0
  6  7  1  0  0  0  0
  7  8  1  0  0  0  0
  8  9  1  0  0  0  0
  8 26  1  0  0  0  0
  9 10  4  0  0  0  0
  9 25  4  0  0  0  0
 10 11  4  0  0  0  0
 11 12  1  0  0  0  0
 11 21  4  0  0  0  0
 12 13  1  0  0  0  0
 13 14  1  0  0  0  0
 14 15  1  0  0  0  0
 15 16  1  0  0  0  0
 15 20  1  0  0  0  0
 16 17  1  0  0  0  0
 17 18  1  0  0  0  0
 18 19  1  0  0  0  0
 19 20  1  0  0  0  0
 21 22  1  0  0  0  0
 21 24  4  0  0  0  0
 22 23  1  0  0  0  0
 24 25  4  0  0  0  0
 26 27  2  0  0  0  0
 28 29  4  0  0  0  0
 29 30  4  0  0  0  0
M  END
>  <Name_Molregno>
354089

>  <5-HT2A>
5.9

>  <5-HT2C>
7.7

$$$$
354113
  Marvin  02231216192D 0   1.00000     0.00000     0

 34 37  0  0  0  0  0  0  0  0999 V2000
    6.1103    2.3563    0.0000 Cl  0  0  0  0  0  0  0  0  0
    5.3958    1.9438    0.0000 C   0  0  0  0  0  0  0  0  0
    5.3958    1.1188    0.0000 C   0  0  0  0  0  0  0  0  0
    4.6814    0.7063    0.0000 C   0  0  0  0  0  0  0  0  0
    3.9669    1.1188    0.0000 C   0  0  0  0  0  0  0  0  0
    3.9669    1.9438    0.0000 C   0  0  0  0  0  0  0  0  0
    4.6814    2.3563    0.0000 C   0  0  0  0  0  0  0  0  0
    4.6814    3.1813    0.0000 Cl  0  0  0  0  0  0  0  0  0
    4.6814   -0.1187    0.0000 C   0  0  0  0  0  0  0  0  0
    5.3488   -0.6036    0.0000 C   0  0  0  0  0  0  0  0  0
    5.0939   -1.3882    0.0000 C   0  0  0  0  0  0  0  0  0
    4.2689   -1.3882    0.0000 N   0  0  0  0  0  0  0  0  0
    4.0139   -0.6036    0.0000 C   0  0  0  0  0  0  0  0  0
    3.2293   -0.3486    0.0000 O   0  0  0  0  0  0  0  0  0
    3.7840   -2.0556    0.0000 C   0  0  0  0  0  0  0  0  0
    4.1195   -2.8093    0.0000 C   0  0  0  0  0  0  0  0  0
    3.6346   -3.4768    0.0000 C   0  0  0  0  0  0  0  0  0
    3.9701   -4.2304    0.0000 O   0  0  0  0  0  0  0  0  0
    3.4852   -4.8979    0.0000 C   0  0  0  0  0  0  0  0  0
    3.8208   -5.6516    0.0000 C   0  0  0  0  0  0  0  0  0
    3.3359   -6.3190    0.0000 N   0  0  0  0  0  0  0  0  0
    3.6714   -7.0727    0.0000 C   0  0  0  0  0  0  0  0  0
    3.1865   -7.7401    0.0000 C   0  0  0  0  0  0  0  0  0
    2.3660   -7.6539    0.0000 C   0  0  0  0  0  0  0  0  0
    2.0305   -6.9002    0.0000 C   0  0  0  0  0  0  0  0  0
    2.5154   -6.2328    0.0000 C   0  0  0  0  0  0  0  0  0
    1.8811   -8.3213    0.0000 C   0  0  0  0  0  0  0  0  0
    2.2166   -9.0750    0.0000 C   0  0  0  0  0  0  0  0  0
    1.0606   -8.2351    0.0000 C   0  0  0  0  0  0  0  0  0
    2.8141   -3.3905    0.0000 C   0  0  0  0  0  0  0  0  0
    2.3292   -4.0580    0.0000 O   0  0  0  0  0  0  0  0  0
    1.5087   -3.9717    0.0000 C   0  0  0  0  0  0  0  0  0
    2.4785   -2.6369    0.0000 C   0  0  0  0  0  0  0  0  0
    2.9635   -1.9694    0.0000 C   0  0  0  0  0  0  0  0  0
  1  2  1  0  0  0  0
  2  3  4  0  0  0  0
  2  7  4  0  0  0  0
  3  4  4  0  0  0  0
  4  5  4  0  0  0  0
  4  9  1  0  0  0  0
  5  6  4  0  0  0  0
  6  7  4  0  0  0  0
  7  8  1  0  0  0  0
  9 10  2  0  0  0  0
  9 13  1  0  0  0  0
 10 11  1  0  0  0  0
 11 12  1  0  0  0  0
 12 13  1  0  0  0  0
 12 15  1  0  0  0  0
 13 14  2  0  0  0  0
 15 16  4  0  0  0  0
 15 34  4  0  0  0  0
 16 17  4  0  0  0  0
 17 18  1  0  0  0  0
 17 30  4  0  0  0  0
 18 19  1  0  0  0  0
 19 20  1  0  0  0  0
 20 21  1  0  0  0  0
 21 22  1  0  0  0  0
 21 26  1  0  0  0  0
 22 23  1  0  0  0  0
 23 24  1  0  0  0  0
 24 25  1  0  0  0  0
 24 27  1  0  0  0  0
 25 26  1  0  0  0  0
 27 28  1  0  0  0  0
 27 29  1  0  0  0  0
 30 31  1  0  0  0  0
 30 33  4  0  0  0  0
 31 32  1  0  0  0  0
 33 34  4  0  0  0  0
M  END
>  <Name_Molregno>
354113

>  <5-HT2A>
6.1

>  <5-HT2C>
7.9

$$$$
354114
  Marvin  02231216192D 0   1.00000     0.00000     0

 31 34  0  0  1  0  0  0  0  0999 V2000
    5.2194    1.3362    0.0000 Cl  0  0  0  0  0  0  0  0  0
    4.5049    0.9237    0.0000 C   0  0  0  0  0  0  0  0  0
    4.5049    0.0987    0.0000 C   0  0  0  0  0  0  0  0  0
    3.7904   -0.3138    0.0000 C   0  0  0  0  0  0  0  0  0
    3.0759    0.0987    0.0000 C   0  0  0  0  0  0  0  0  0
    3.0759    0.9237    0.0000 C   0  0  0  0  0  0  0  0  0
    3.7904    1.3362    0.0000 C   0  0  0  0  0  0  0  0  0
    3.7904    2.1612    0.0000 Cl  0  0  0  0  0  0  0  0  0
    3.7904   -1.1388    0.0000 C   0  0  0  0  0  0  0  0  0
    4.4578   -1.6237    0.0000 C   0  0  0  0  0  0  0  0  0
    4.2029   -2.4084    0.0000 C   0  0  0  0  0  0  0  0  0
    3.3779   -2.4084    0.0000 N   0  0  0  0  0  0  0  0  0
    3.1230   -1.6237    0.0000 C   0  0  0  0  0  0  0  0  0
    2.3383   -1.3688    0.0000 O   0  0  0  0  0  0  0  0  0
    2.8930   -3.0758    0.0000 C   0  0  0  0  0  0  0  0  0
    3.2285   -3.8295    0.0000 C   0  0  0  0  0  0  0  0  0
    2.7436   -4.4969    0.0000 C   0  0  0  0  0  0  0  0  0
    3.0792   -5.2506    0.0000 O   0  0  0  0  0  0  0  0  0
    2.5943   -5.9180    0.0000 C   0  0  0  0  0  0  0  0  0
    2.9298   -6.6717    0.0000 C   0  0  0  0  0  0  0  0  0
    2.4449   -7.3391    0.0000 N   0  0  0  0  0  0  0  0  0
    2.7804   -8.0928    0.0000 C   0  0  0  0  0  0  0  0  0
    2.2955   -8.7602    0.0000 C   0  0  0  0  0  0  0  0  0
    1.4750   -8.6740    0.0000 C   0  0  0  0  0  0  0  0  0
    1.1395   -7.9203    0.0000 C   0  0  0  0  0  0  0  0  0
    1.6244   -7.2529    0.0000 C   0  0  0  0  0  0  0  0  0
    1.9231   -4.4107    0.0000 C   0  0  0  0  0  0  0  0  0
    1.4382   -5.0781    0.0000 O   0  0  0  0  0  0  0  0  0
    0.6177   -4.9919    0.0000 C   0  0  0  0  0  0  0  0  0
    1.5876   -3.6570    0.0000 C   0  0  0  0  0  0  0  0  0
    2.0725   -2.9896    0.0000 C   0  0  0  0  0  0  0  0  0
  1  2  1  0  0  0  0
  2  3  4  0  0  0  0
  2  7  4  0  0  0  0
  3  4  4  0  0  0  0
  4  5  4  0  0  0  0
  4  9  1  0  0  0  0
  5  6  4  0  0  0  0
  6  7  4  0  0  0  0
  7  8  1  0  0  0  0
  9 10  1  0  0  0  0
  9 13  1  0  0  0  0
 10 11  1  0  0  0  0
 11 12  1  0  0  0  0
 12 13  1  0  0  0  0
 12 15  1  0  0  0  0
 13 14  2  0  0  0  0
 15 16  4  0  0  0  0
 15 31  4  0  0  0  0
 16 17  4  0  0  0  0
 17 18  1  0  0  0  0
 17 27  4  0  0  0  0
 18 19  1  0  0  0  0
 19 20  1  0  0  0  0
 20 21  1  0  0  0  0
 21 22  1  0  0  0  0
 21 26  1  0  0  0  0
 22 23  1  0  0  0  0
 23 24  1  0  0  0  0
 24 25  1  0  0  0  0
 25 26  1  0  0  0  0
 27 28  1  0  0  0  0
 27 30  4  0  0  0  0
 28 29  1  0  0  0  0
 30 31  4  0  0  0  0
M  END
>  <Name_Molregno>
354114

>  <5-HT2A>
6.3

>  <5-HT2C>
7.9

$$$$
354121
  Marvin  02231216192D 0   1.00000     0.00000     0

 33 36  0  0  1  0  0  0  0  0999 V2000
    5.5979    1.7638    0.0000 Cl  0  0  0  0  0  0  0  0  0
    4.8835    1.3513    0.0000 C   0  0  0  0  0  0  0  0  0
    4.8835    0.5263    0.0000 C   0  0  0  0  0  0  0  0  0
    4.1690    0.1138    0.0000 C   0  0  0  0  0  0  0  0  0
    3.4545    0.5263    0.0000 C   0  0  0  0  0  0  0  0  0
    3.4545    1.3513    0.0000 C   0  0  0  0  0  0  0  0  0
    4.1690    1.7638    0.0000 C   0  0  0  0  0  0  0  0  0
    4.1690    2.5888    0.0000 Cl  0  0  0  0  0  0  0  0  0
    4.1690   -0.7112    0.0000 C   0  0  0  0  0  0  0  0  0
    4.8364   -1.1961    0.0000 C   0  0  0  0  0  0  0  0  0
    4.5815   -1.9808    0.0000 C   0  0  0  0  0  0  0  0  0
    3.7565   -1.9808    0.0000 N   0  0  0  0  0  0  0  0  0
    3.5016   -1.1961    0.0000 C   0  0  0  0  0  0  0  0  0
    2.7169   -0.9412    0.0000 O   0  0  0  0  0  0  0  0  0
    3.2716   -2.6482    0.0000 C   0  0  0  0  0  0  0  0  0
    3.6071   -3.4019    0.0000 C   0  0  0  0  0  0  0  0  0
    3.1222   -4.0693    0.0000 C   0  0  0  0  0  0  0  0  0
    3.4578   -4.8230    0.0000 O   0  0  0  0  0  0  0  0  0
    2.9729   -5.4904    0.0000 C   0  0  0  0  0  0  0  0  0
    3.3084   -6.2441    0.0000 C   0  0  0  0  0  0  0  0  0
    2.8235   -6.9115    0.0000 N   0  0  0  0  0  0  0  0  0
    3.1590   -7.6652    0.0000 C   0  0  0  0  0  0  0  0  0
    2.6741   -8.3327    0.0000 C   0  0  0  0  0  0  0  0  0
    1.8536   -8.2464    0.0000 C   0  0  0  0  0  0  0  0  0
    1.5181   -7.4928    0.0000 C   0  0  0  0  0  0  0  0  0
    2.0030   -6.8253    0.0000 C   0  0  0  0  0  0  0  0  0
    1.7388   -9.0634    0.0000 C   0  0  0  0  0  0  0  0  0
    1.1121   -8.6081    0.0000 C   0  0  0  0  0  0  0  0  0
    2.3017   -3.9831    0.0000 C   0  0  0  0  0  0  0  0  0
    1.8168   -4.6505    0.0000 O   0  0  0  0  0  0  0  0  0
    0.9963   -4.5643    0.0000 C   0  0  0  0  0  0  0  0  0
    1.9662   -3.2294    0.0000 C   0  0  0  0  0  0  0  0  0
    2.4511   -2.5620    0.0000 C   0  0  0  0  0  0  0  0  0
  1  2  1  0  0  0  0
  2  3  4  0  0  0  0
  2  7  4  0  0  0  0
  3  4  4  0  0  0  0
  4  5  4  0  0  0  0
  4  9  1  0  0  0  0
  5  6  4  0  0  0  0
  6  7  4  0  0  0  0
  7  8  1  0  0  0  0
  9 10  1  0  0  0  0
  9 13  1  0  0  0  0
 10 11  1  0  0  0  0
 11 12  1  0  0  0  0
 12 13  1  0  0  0  0
 12 15  1  0  0  0  0
 13 14  2  0  0  0  0
 15 16  4  0  0  0  0
 15 33  4  0  0  0  0
 16 17  4  0  0  0  0
 17 18  1  0  0  0  0
 17 29  4  0  0  0  0
 18 19  1  0  0  0  0
 19 20  1  0  0  0  0
 20 21  1  0  0  0  0
 21 22  1  0  0  0  0
 21 26  1  0  0  0  0
 22 23  1  0  0  0  0
 23 24  1  0  0  0  0
 24 25  1  0  0  0  0
 24 27  1  0  0  0  0
 24 28  1  0  0  0  0
 25 26  1  0  0  0  0
 29 30  1  0  0  0  0
 29 32  4  0  0  0  0
 30 31  1  0  0  0  0
 32 33  4  0  0  0  0
M  END
>  <Name_Molregno>
354121

>  <5-HT2A>
6.4

>  <5-HT2C>
7.9

$$$$
354122
  Marvin  02231216192D 0   1.00000     0.00000     0

 34 37  0  0  1  0  0  0  0  0999 V2000
    6.1103    2.3563    0.0000 Cl  0  0  0  0  0  0  0  0  0
    5.3958    1.9438    0.0000 C   0  0  0  0  0  0  0  0  0
    5.3958    1.1188    0.0000 C   0  0  0  0  0  0  0  0  0
    4.6814    0.7063    0.0000 C   0  0  0  0  0  0  0  0  0
    3.9669    1.1188    0.0000 C   0  0  0  0  0  0  0  0  0
    3.9669    1.9438    0.0000 C   0  0  0  0  0  0  0  0  0
    4.6814    2.3563    0.0000 C   0  0  0  0  0  0  0  0  0
    4.6814    3.1813    0.0000 Cl  0  0  0  0  0  0  0  0  0
    4.6814   -0.1187    0.0000 C   0  0  0  0  0  0  0  0  0
    5.3488   -0.6036    0.0000 C   0  0  0  0  0  0  0  0  0
    5.0939   -1.3882    0.0000 C   0  0  0  0  0  0  0  0  0
    4.2689   -1.3882    0.0000 N   0  0  0  0  0  0  0  0  0
    4.0139   -0.6036    0.0000 C   0  0  0  0  0  0  0  0  0
    3.2293   -0.3486    0.0000 O   0  0  0  0  0  0  0  0  0
    3.7840   -2.0556    0.0000 C   0  0  0  0  0  0  0  0  0
    4.1195   -2.8093    0.0000 C   0  0  0  0  0  0  0  0  0
    3.6346   -3.4768    0.0000 C   0  0  0  0  0  0  0  0  0
    3.9701   -4.2304    0.0000 O   0  0  0  0  0  0  0  0  0
    3.4852   -4.8979    0.0000 C   0  0  0  0  0  0  0  0  0
    3.8208   -5.6516    0.0000 C   0  0  0  0  0  0  0  0  0
    3.3359   -6.3190    0.0000 N   0  0  0  0  0  0  0  0  0
    3.6714   -7.0727    0.0000 C   0  0  0  0  0  0  0  0  0
    3.1865   -7.7401    0.0000 C   0  0  0  0  0  0  0  0  0
    2.3660   -7.6539    0.0000 C   0  0  0  0  0  0  0  0  0
    2.0305   -6.9002    0.0000 C   0  0  0  0  0  0  0  0  0
    2.5154   -6.2328    0.0000 C   0  0  0  0  0  0  0  0  0
    1.8811   -8.3213    0.0000 C   0  0  0  0  0  0  0  0  0
    2.2166   -9.0750    0.0000 C   0  0  0  0  0  0  0  0  0
    1.0606   -8.2351    0.0000 C   0  0  0  0  0  0  0  0  0
    2.8141   -3.3905    0.0000 C   0  0  0  0  0  0  0  0  0
    2.3292   -4.0580    0.0000 O   0  0  0  0  0  0  0  0  0
    1.5087   -3.9717    0.0000 C   0  0  0  0  0  0  0  0  0
    2.4785   -2.6369    0.0000 C   0  0  0  0  0  0  0  0  0
    2.9635   -1.9694    0.0000 C   0  0  0  0  0  0  0  0  0
  1  2  1  0  0  0  0
  2  3  4  0  0  0  0
  2  7  4  0  0  0  0
  3  4  4  0  0  0  0
  4  5  4  0  0  0  0
  4  9  1  0  0  0  0
  5  6  4  0  0  0  0
  6  7  4  0  0  0  0
  7  8  1  0  0  0  0
  9 10  1  0  0  0  0
  9 13  1  0  0  0  0
 10 11  1  0  0  0  0
 11 12  1  0  0  0  0
 12 13  1  0  0  0  0
 12 15  1  0  0  0  0
 13 14  2  0  0  0  0
 15 16  4  0  0  0  0
 15 34  4  0  0  0  0
 16 17  4  0  0  0  0
 17 18  1  0  0  0  0
 17 30  4  0  0  0  0
 18 19  1  0  0  0  0
 19 20  1  0  0  0  0
 20 21  1  0  0  0  0
 21 22  1  0  0  0  0
 21 26  1  0  0  0  0
 22 23  1  0  0  0  0
 23 24  1  0  0  0  0
 24 25  1  0  0  0  0
 24 27  1  0  0  0  0
 25 26  1  0  0  0  0
 27 28  1  0  0  0  0
 27 29  1  0  0  0  0
 30 31  1  0  0  0  0
 30 33  4  0  0  0  0
 31 32  1  0  0  0  0
 33 34  4  0  0  0  0
M  END
>  <Name_Molregno>
354122

>  <5-HT2A>
6.4

>  <5-HT2C>
7.6

$$$$
354123
  Marvin  02231216192D 0   1.00000     0.00000     0

 31 34  0  0  0  0  0  0  0  0999 V2000
    5.2194    1.3362    0.0000 Cl  0  0  0  0  0  0  0  0  0
    4.5049    0.9237    0.0000 C   0  0  0  0  0  0  0  0  0
    4.5049    0.0987    0.0000 C   0  0  0  0  0  0  0  0  0
    3.7904   -0.3138    0.0000 C   0  0  0  0  0  0  0  0  0
    3.7904   -1.1388    0.0000 N   0  0  0  0  0  0  0  0  0
    4.4578   -1.6237    0.0000 C   0  0  0  0  0  0  0  0  0
    4.2029   -2.4084    0.0000 C   0  0  0  0  0  0  0  0  0
    3.3779   -2.4084    0.0000 C   0  0  0  0  0  0  0  0  0
    2.8930   -3.0758    0.0000 C   0  0  0  0  0  0  0  0  0
    3.2285   -3.8295    0.0000 C   0  0  0  0  0  0  0  0  0
    2.7436   -4.4969    0.0000 C   0  0  0  0  0  0  0  0  0
    3.0792   -5.2506    0.0000 O   0  0  0  0  0  0  0  0  0
    2.5943   -5.9180    0.0000 C   0  0  0  0  0  0  0  0  0
    2.9298   -6.6717    0.0000 C   0  0  0  0  0  0  0  0  0
    2.4449   -7.3391    0.0000 N   0  0  0  0  0  0  0  0  0
    2.7804   -8.0928    0.0000 C   0  0  0  0  0  0  0  0  0
    2.2955   -8.7602    0.0000 C   0  0  0  0  0  0  0  0  0
    1.4750   -8.6740    0.0000 C   0  0  0  0  0  0  0  0  0
    1.1395   -7.9203    0.0000 C   0  0  0  0  0  0  0  0  0
    1.6244   -7.2529    0.0000 C   0  0  0  0  0  0  0  0  0
    1.9231   -4.4107    0.0000 C   0  0  0  0  0  0  0  0  0
    1.4382   -5.0781    0.0000 O   0  0  0  0  0  0  0  0  0
    0.6177   -4.9919    0.0000 C   0  0  0  0  0  0  0  0  0
    1.5876   -3.6570    0.0000 C   0  0  0  0  0  0  0  0  0
    2.0725   -2.9896    0.0000 C   0  0  0  0  0  0  0  0  0
    3.1230   -1.6237    0.0000 C   0  0  0  0  0  0  0  0  0
    2.3383   -1.3688    0.0000 O   0  0  0  0  0  0  0  0  0
    3.0759    0.0987    0.0000 C   0  0  0  0  0  0  0  0  0
    3.0759    0.9237    0.0000 C   0  0  0  0  0  0  0  0  0
    3.7904    1.3362    0.0000 C   0  0  0  0  0  0  0  0  0
    3.7904    2.1612    0.0000 Cl  0  0  0  0  0  0  0  0  0
  1  2  1  0  0  0  0
  2  3  4  0  0  0  0
  2 30  4  0  0  0  0
  3  4  4  0  0  0  0
  4  5  1  0  0  0  0
  4 28  4  0  0  0  0
  5  6  1  0  0  0  0
  5 26  1  0  0  0  0
  6  7  1  0  0  0  0
  7  8  2  0  0  0  0
  8  9  1  0  0  0  0
  8 26  1  0  0  0  0
  9 10  4  0  0  0  0
  9 25  4  0  0  0  0
 10 11  4  0  0  0  0
 11 12  1  0  0  0  0
 11 21  4  0  0  0  0
 12 13  1  0  0  0  0
 13 14  1  0  0  0  0
 14 15  1  0  0  0  0
 15 16  1  0  0  0  0
 15 20  1  0  0  0  0
 16 17  1  0  0  0  0
 17 18  1  0  0  0  0
 18 19  1  0  0  0  0
 19 20  1  0  0  0  0
 21 22  1  0  0  0  0
 21 24  4  0  0  0  0
 22 23  1  0  0  0  0
 24 25  4  0  0  0  0
 26 27  2  0  0  0  0
 28 29  4  0  0  0  0
 29 30  4  0  0  0  0
 30 31  1  0  0  0  0
M  END
>  <Name_Molregno>
354123

>  <5-HT2A>
5.9

>  <5-HT2C>
8.3

$$$$
354124
  Marvin  02231216192D 0   1.00000     0.00000     0

 31 34  0  0  0  0  0  0  0  0999 V2000
    3.1852   -0.0091    0.0000 O   0  0  0  0  0  0  0  0  0
    3.1852    0.8159    0.0000 C   0  0  0  0  0  0  0  0  0
    3.8997    1.2284    0.0000 C   0  0  0  0  0  0  0  0  0
    3.8997    2.0534    0.0000 N   0  0  0  0  0  0  0  0  0
    3.1852    2.4659    0.0000 C   0  0  0  0  0  0  0  0  0
    3.1852    3.2909    0.0000 C   0  0  0  0  0  0  0  0  0
    3.8997    3.7034    0.0000 C   0  0  0  0  0  0  0  0  0
    4.6141    3.2909    0.0000 C   0  0  0  0  0  0  0  0  0
    4.6141    2.4659    0.0000 C   0  0  0  0  0  0  0  0  0
    2.4707   -0.4216    0.0000 C   0  0  0  0  0  0  0  0  0
    2.4707   -1.2466    0.0000 C   0  0  0  0  0  0  0  0  0
    1.7562   -1.6591    0.0000 C   0  0  0  0  0  0  0  0  0
    1.0418   -1.2466    0.0000 C   0  0  0  0  0  0  0  0  0
    1.0418   -0.4216    0.0000 C   0  0  0  0  0  0  0  0  0
    1.7562   -0.0091    0.0000 C   0  0  0  0  0  0  0  0  0
    1.7562    0.8159    0.0000 O   0  0  0  0  0  0  0  0  0
    1.0418    1.2284    0.0000 C   0  0  0  0  0  0  0  0  0
    1.7562   -2.4841    0.0000 C   0  0  0  0  0  0  0  0  0
    2.4237   -2.9690    0.0000 C   0  0  0  0  0  0  0  0  0
    2.1687   -3.7536    0.0000 C   0  0  0  0  0  0  0  0  0
    1.3437   -3.7536    0.0000 N   0  0  0  0  0  0  0  0  0
    1.0888   -2.9690    0.0000 C   0  0  0  0  0  0  0  0  0
    0.3042   -2.7141    0.0000 O   0  0  0  0  0  0  0  0  0
    0.8588   -4.4211    0.0000 C   0  0  0  0  0  0  0  0  0
    1.1944   -5.1747    0.0000 C   0  0  0  0  0  0  0  0  0
    0.7094   -5.8422    0.0000 C   0  0  0  0  0  0  0  0  0
   -0.1110   -5.7559    0.0000 C   0  0  0  0  0  0  0  0  0
   -0.5960   -6.4234    0.0000 O   0  0  0  0  0  0  0  0  0
   -0.2604   -7.1771    0.0000 C   0  0  0  0  0  0  0  0  0
   -0.4466   -5.0023    0.0000 C   0  0  0  0  0  0  0  0  0
    0.0383   -4.3348    0.0000 C   0  0  0  0  0  0  0  0  0
  1  2  1  0  0  0  0
  1 10  1  0  0  0  0
  2  3  1  0  0  0  0
  3  4  1  0  0  0  0
  4  5  1  0  0  0  0
  4  9  1  0  0  0  0
  5  6  1  0  0  0  0
  6  7  1  0  0  0  0
  7  8  1  0  0  0  0
  8  9  1  0  0  0  0
 10 11  4  0  0  0  0
 10 15  4  0  0  0  0
 11 12  4  0  0  0  0
 12 13  4  0  0  0  0
 12 18  1  0  0  0  0
 13 14  4  0  0  0  0
 14 15  4  0  0  0  0
 15 16  1  0  0  0  0
 16 17  1  0  0  0  0
 18 19  2  0  0  0  0
 18 22  1  0  0  0  0
 19 20  1  0  0  0  0
 20 21  1  0  0  0  0
 21 22  1  0  0  0  0
 21 24  1  0  0  0  0
 22 23  2  0  0  0  0
 24 25  4  0  0  0  0
 24 31  4  0  0  0  0
 25 26  4  0  0  0  0
 26 27  4  0  0  0  0
 27 28  1  0  0  0  0
 27 30  4  0  0  0  0
 28 29  1  0  0  0  0
 30 31  4  0  0  0  0
M  END
>  <Name_Molregno>
354124

>  <5-HT2A>
5.3

>  <5-HT2C>
8

$$$$
354144
  Marvin  02231216192D 0   1.00000     0.00000     0

 34 37  0  0  0  0  0  0  0  0999 V2000
    6.4589    6.1012    0.0000 F   0  0  0  0  0  0  0  0  0
    6.4589    5.2762    0.0000 C   0  0  0  0  0  0  0  0  0
    5.6339    5.2762    0.0000 F   0  0  0  0  0  0  0  0  0
    7.2839    5.2762    0.0000 F   0  0  0  0  0  0  0  0  0
    6.4589    4.4512    0.0000 C   0  0  0  0  0  0  0  0  0
    7.1734    4.0387    0.0000 C   0  0  0  0  0  0  0  0  0
    7.1734    3.2137    0.0000 C   0  0  0  0  0  0  0  0  0
    6.4589    2.8012    0.0000 C   0  0  0  0  0  0  0  0  0
    5.7444    3.2137    0.0000 C   0  0  0  0  0  0  0  0  0
    5.7444    4.0387    0.0000 C   0  0  0  0  0  0  0  0  0
    6.4589    1.9762    0.0000 C   0  0  0  0  0  0  0  0  0
    7.1263    1.4912    0.0000 C   0  0  0  0  0  0  0  0  0
    6.8714    0.7066    0.0000 C   0  0  0  0  0  0  0  0  0
    6.0464    0.7066    0.0000 N   0  0  0  0  0  0  0  0  0
    5.7915    1.4912    0.0000 C   0  0  0  0  0  0  0  0  0
    5.0068    1.7462    0.0000 O   0  0  0  0  0  0  0  0  0
    5.5615    0.0392    0.0000 C   0  0  0  0  0  0  0  0  0
    5.8970   -0.7145    0.0000 C   0  0  0  0  0  0  0  0  0
    5.4121   -1.3819    0.0000 C   0  0  0  0  0  0  0  0  0
    5.7477   -2.1356    0.0000 O   0  0  0  0  0  0  0  0  0
    5.2627   -2.8031    0.0000 C   0  0  0  0  0  0  0  0  0
    5.5983   -3.5567    0.0000 C   0  0  0  0  0  0  0  0  0
    5.1134   -4.2242    0.0000 N   0  0  0  0  0  0  0  0  0
    5.4489   -4.9778    0.0000 C   0  0  0  0  0  0  0  0  0
    4.9640   -5.6453    0.0000 C   0  0  0  0  0  0  0  0  0
    4.1435   -5.5591    0.0000 C   0  0  0  0  0  0  0  0  0
    3.8080   -4.8054    0.0000 C   0  0  0  0  0  0  0  0  0
    4.2929   -4.1379    0.0000 C   0  0  0  0  0  0  0  0  0
    3.6586   -6.2265    0.0000 C   0  0  0  0  0  0  0  0  0
    4.5916   -1.2957    0.0000 C   0  0  0  0  0  0  0  0  0
    4.1067   -1.9631    0.0000 O   0  0  0  0  0  0  0  0  0
    3.2862   -1.8769    0.0000 C   0  0  0  0  0  0  0  0  0
    4.2561   -0.5420    0.0000 C   0  0  0  0  0  0  0  0  0
    4.7410    0.1254    0.0000 C   0  0  0  0  0  0  0  0  0
  1  2  1  0  0  0  0
  2  3  1  0  0  0  0
  2  4  1  0  0  0  0
  2  5  1  0  0  0  0
  5  6  4  0  0  0  0
  5 10  4  0  0  0  0
  6  7  4  0  0  0  0
  7  8  4  0  0  0  0
  8  9  4  0  0  0  0
  8 11  1  0  0  0  0
  9 10  4  0  0  0  0
 11 12  2  0  0  0  0
 11 15  1  0  0  0  0
 12 13  1  0  0  0  0
 13 14  1  0  0  0  0
 14 15  1  0  0  0  0
 14 17  1  0  0  0  0
 15 16  2  0  0  0  0
 17 18  4  0  0  0  0
 17 34  4  0  0  0  0
 18 19  4  0  0  0  0
 19 20  1  0  0  0  0
 19 30  4  0  0  0  0
 20 21  1  0  0  0  0
 21 22  1  0  0  0  0
 22 23  1  0  0  0  0
 23 24  1  0  0  0  0
 23 28  1  0  0  0  0
 24 25  1  0  0  0  0
 25 26  1  0  0  0  0
 26 27  1  0  0  0  0
 26 29  1  0  0  0  0
 27 28  1  0  0  0  0
 30 31  1  0  0  0  0
 30 33  4  0  0  0  0
 31 32  1  0  0  0  0
 33 34  4  0  0  0  0
M  END
>  <Name_Molregno>
354144

>  <5-HT2A>
5.8

>  <5-HT2C>
7.9

$$$$
354145
  Marvin  02231216192D 0   1.00000     0.00000     0

 31 34  0  0  0  0  0  0  0  0999 V2000
    6.2284    5.7720    0.0000 Br  0  0  0  0  0  0  0  0  0
    6.2284    4.9470    0.0000 C   0  0  0  0  0  0  0  0  0
    6.9429    4.5345    0.0000 C   0  0  0  0  0  0  0  0  0
    6.9429    3.7095    0.0000 C   0  0  0  0  0  0  0  0  0
    6.2284    3.2970    0.0000 C   0  0  0  0  0  0  0  0  0
    5.5139    3.7095    0.0000 C   0  0  0  0  0  0  0  0  0
    5.5139    4.5345    0.0000 C   0  0  0  0  0  0  0  0  0
    6.2284    2.4720    0.0000 C   0  0  0  0  0  0  0  0  0
    6.8958    1.9870    0.0000 C   0  0  0  0  0  0  0  0  0
    6.6409    1.2024    0.0000 C   0  0  0  0  0  0  0  0  0
    5.8159    1.2024    0.0000 N   0  0  0  0  0  0  0  0  0
    5.5609    1.9870    0.0000 C   0  0  0  0  0  0  0  0  0
    4.7763    2.2420    0.0000 O   0  0  0  0  0  0  0  0  0
    5.3310    0.5350    0.0000 C   0  0  0  0  0  0  0  0  0
    5.6665   -0.2187    0.0000 C   0  0  0  0  0  0  0  0  0
    5.1816   -0.8861    0.0000 C   0  0  0  0  0  0  0  0  0
    5.5172   -1.6398    0.0000 O   0  0  0  0  0  0  0  0  0
    5.0322   -2.3072    0.0000 C   0  0  0  0  0  0  0  0  0
    5.3678   -3.0609    0.0000 C   0  0  0  0  0  0  0  0  0
    4.8829   -3.7284    0.0000 N   0  0  0  0  0  0  0  0  0
    5.2184   -4.4820    0.0000 C   0  0  0  0  0  0  0  0  0
    4.7335   -5.1495    0.0000 C   0  0  0  0  0  0  0  0  0
    3.9130   -5.0632    0.0000 C   0  0  0  0  0  0  0  0  0
    3.5775   -4.3096    0.0000 C   0  0  0  0  0  0  0  0  0
    4.0624   -3.6421    0.0000 C   0  0  0  0  0  0  0  0  0
    3.4281   -5.7307    0.0000 C   0  0  0  0  0  0  0  0  0
    4.3611   -0.7999    0.0000 C   0  0  0  0  0  0  0  0  0
    3.8762   -1.4673    0.0000 O   0  0  0  0  0  0  0  0  0
    3.0557   -1.3811    0.0000 C   0  0  0  0  0  0  0  0  0
    4.0256   -0.0462    0.0000 C   0  0  0  0  0  0  0  0  0
    4.5105    0.6212    0.0000 C   0  0  0  0  0  0  0  0  0
  1  2  1  0  0  0  0
  2  3  4  0  0  0  0
  2  7  4  0  0  0  0
  3  4  4  0  0  0  0
  4  5  4  0  0  0  0
  5  6  4  0  0  0  0
  5  8  1  0  0  0  0
  6  7  4  0  0  0  0
  8  9  2  0  0  0  0
  8 12  1  0  0  0  0
  9 10  1  0  0  0  0
 10 11  1  0  0  0  0
 11 12  1  0  0  0  0
 11 14  1  0  0  0  0
 12 13  2  0  0  0  0
 14 15  4  0  0  0  0
 14 31  4  0  0  0  0
 15 16  4  0  0  0  0
 16 17  1  0  0  0  0
 16 27  4  0  0  0  0
 17 18  1  0  0  0  0
 18 19  1  0  0  0  0
 19 20  1  0  0  0  0
 20 21  1  0  0  0  0
 20 25  1  0  0  0  0
 21 22  1  0  0  0  0
 22 23  1  0  0  0  0
 23 24  1  0  0  0  0
 23 26  1  0  0  0  0
 24 25  1  0  0  0  0
 27 28  1  0  0  0  0
 27 30  4  0  0  0  0
 28 29  1  0  0  0  0
 30 31  4  0  0  0  0
M  END
>  <Name_Molregno>
354145

>  <5-HT2A>
6.4

>  <5-HT2C>
8.4

$$$$
354152
  Marvin  02231216192D 0   1.00000     0.00000     0

 30 33  0  0  1  0  0  0  0  0999 V2000
    5.3737    1.4190    0.0000 F   0  0  0  0  0  0  0  0  0
    4.6592    1.0065    0.0000 C   0  0  0  0  0  0  0  0  0
    4.6592    0.1815    0.0000 C   0  0  0  0  0  0  0  0  0
    3.9447   -0.2310    0.0000 C   0  0  0  0  0  0  0  0  0
    3.2302    0.1815    0.0000 C   0  0  0  0  0  0  0  0  0
    3.2302    1.0065    0.0000 C   0  0  0  0  0  0  0  0  0
    3.9447    1.4190    0.0000 C   0  0  0  0  0  0  0  0  0
    3.9447   -1.0560    0.0000 C   0  0  0  0  0  0  0  0  0
    4.6122   -1.5409    0.0000 C   0  0  0  0  0  0  0  0  0
    4.3572   -2.3256    0.0000 C   0  0  0  0  0  0  0  0  0
    3.5322   -2.3256    0.0000 N   0  0  0  0  0  0  0  0  0
    3.2773   -1.5409    0.0000 C   0  0  0  0  0  0  0  0  0
    2.4927   -1.2860    0.0000 O   0  0  0  0  0  0  0  0  0
    3.0473   -2.9930    0.0000 C   0  0  0  0  0  0  0  0  0
    3.3829   -3.7467    0.0000 C   0  0  0  0  0  0  0  0  0
    2.8979   -4.4141    0.0000 C   0  0  0  0  0  0  0  0  0
    3.2335   -5.1678    0.0000 O   0  0  0  0  0  0  0  0  0
    2.7486   -5.8352    0.0000 C   0  0  0  0  0  0  0  0  0
    3.0841   -6.5889    0.0000 C   0  0  0  0  0  0  0  0  0
    2.5992   -7.2563    0.0000 N   0  0  0  0  0  0  0  0  0
    2.9348   -8.0100    0.0000 C   0  0  0  0  0  0  0  0  0
    2.4498   -8.6775    0.0000 C   0  0  0  0  0  0  0  0  0
    1.6294   -8.5912    0.0000 C   0  0  0  0  0  0  0  0  0
    1.2938   -7.8375    0.0000 C   0  0  0  0  0  0  0  0  0
    1.7787   -7.1701    0.0000 C   0  0  0  0  0  0  0  0  0
    2.0775   -4.3279    0.0000 C   0  0  0  0  0  0  0  0  0
    1.5925   -4.9953    0.0000 O   0  0  0  0  0  0  0  0  0
    0.7720   -4.9091    0.0000 C   0  0  0  0  0  0  0  0  0
    1.7419   -3.5742    0.0000 C   0  0  0  0  0  0  0  0  0
    2.2268   -2.9068    0.0000 C   0  0  0  0  0  0  0  0  0
  1  2  1  0  0  0  0
  2  3  4  0  0  0  0
  2  7  4  0  0  0  0
  3  4  4  0  0  0  0
  4  5  4  0  0  0  0
  4  8  1  0  0  0  0
  5  6  4  0  0  0  0
  6  7  4  0  0  0  0
  8  9  1  0  0  0  0
  8 12  1  0  0  0  0
  9 10  1  0  0  0  0
 10 11  1  0  0  0  0
 11 12  1  0  0  0  0
 11 14  1  0  0  0  0
 12 13  2  0  0  0  0
 14 15  4  0  0  0  0
 14 30  4  0  0  0  0
 15 16  4  0  0  0  0
 16 17  1  0  0  0  0
 16 26  4  0  0  0  0
 17 18  1  0  0  0  0
 18 19  1  0  0  0  0
 19 20  1  0  0  0  0
 20 21  1  0  0  0  0
 20 25  1  0  0  0  0
 21 22  1  0  0  0  0
 22 23  1  0  0  0  0
 23 24  1  0  0  0  0
 24 25  1  0  0  0  0
 26 27  1  0  0  0  0
 26 29  4  0  0  0  0
 27 28  1  0  0  0  0
 29 30  4  0  0  0  0
M  END
>  <Name_Molregno>
354152

>  <5-HT2A>
5.1

>  <5-HT2C>
7

$$$$
354153
  Marvin  02231216192D 0   1.00000     0.00000     0

 32 35  0  0  1  0  0  0  0  0999 V2000
    5.1391    4.0230    0.0000 Cl  0  0  0  0  0  0  0  0  0
    4.8842    3.2384    0.0000 C   0  0  0  0  0  0  0  0  0
    5.4362    2.6253    0.0000 C   0  0  0  0  0  0  0  0  0
    5.1812    1.8407    0.0000 C   0  0  0  0  0  0  0  0  0
    4.3743    1.6691    0.0000 C   0  0  0  0  0  0  0  0  0
    3.8222    2.2822    0.0000 C   0  0  0  0  0  0  0  0  0
    4.0772    3.0668    0.0000 C   0  0  0  0  0  0  0  0  0
    3.5251    3.6799    0.0000 Cl  0  0  0  0  0  0  0  0  0
    5.7333    1.2276    0.0000 C   0  0  0  0  0  0  0  0  0
    6.4007    0.7426    0.0000 C   0  0  0  0  0  0  0  0  0
    6.1458   -0.0420    0.0000 C   0  0  0  0  0  0  0  0  0
    5.3208   -0.0420    0.0000 N   0  0  0  0  0  0  0  0  0
    5.0658    0.7426    0.0000 C   0  0  0  0  0  0  0  0  0
    4.2812    0.9976    0.0000 O   0  0  0  0  0  0  0  0  0
    4.8359   -0.7094    0.0000 C   0  0  0  0  0  0  0  0  0
    5.1714   -1.4631    0.0000 C   0  0  0  0  0  0  0  0  0
    4.6865   -2.1305    0.0000 C   0  0  0  0  0  0  0  0  0
    5.0220   -2.8842    0.0000 O   0  0  0  0  0  0  0  0  0
    4.5371   -3.5516    0.0000 C   0  0  0  0  0  0  0  0  0
    4.8727   -4.3053    0.0000 C   0  0  0  0  0  0  0  0  0
    4.3878   -4.9728    0.0000 N   0  0  0  0  0  0  0  0  0
    4.7233   -5.7264    0.0000 C   0  0  0  0  0  0  0  0  0
    4.2384   -6.3939    0.0000 C   0  0  0  0  0  0  0  0  0
    3.4179   -6.3076    0.0000 C   0  0  0  0  0  0  0  0  0
    3.0824   -5.5540    0.0000 C   0  0  0  0  0  0  0  0  0
    3.5673   -4.8865    0.0000 C   0  0  0  0  0  0  0  0  0
    3.8660   -2.0443    0.0000 C   0  0  0  0  0  0  0  0  0
    3.3811   -2.7117    0.0000 O   0  0  0  0  0  0  0  0  0
    2.5606   -2.6255    0.0000 C   0  0  0  0  0  0  0  0  0
    3.5305   -1.2906    0.0000 C   0  0  0  0  0  0  0  0  0
    4.0154   -0.6232    0.0000 C   0  0  0  0  0  0  0  0  0
    6.2853    1.8407    0.0000 C   0  0  0  0  0  0  0  0  0
  1  2  1  0  0  0  0
  2  3  4  0  0  0  0
  2  7  4  0  0  0  0
  3  4  4  0  0  0  0
  4  5  4  0  0  0  0
  4  9  1  0  0  0  0
  5  6  4  0  0  0  0
  6  7  4  0  0  0  0
  7  8  1  0  0  0  0
  9 10  1  0  0  0  0
  9 13  1  0  0  0  0
  9 32  1  0  0  0  0
 10 11  1  0  0  0  0
 11 12  1  0  0  0  0
 12 13  1  0  0  0  0
 12 15  1  0  0  0  0
 13 14  2  0  0  0  0
 15 16  4  0  0  0  0
 15 31  4  0  0  0  0
 16 17  4  0  0  0  0
 17 18  1  0  0  0  0
 17 27  4  0  0  0  0
 18 19  1  0  0  0  0
 19 20  1  0  0  0  0
 20 21  1  0  0  0  0
 21 22  1  0  0  0  0
 21 26  1  0  0  0  0
 22 23  1  0  0  0  0
 23 24  1  0  0  0  0
 24 25  1  0  0  0  0
 25 26  1  0  0  0  0
 27 28  1  0  0  0  0
 27 30  4  0  0  0  0
 28 29  1  0  0  0  0
 30 31  4  0  0  0  0
M  END
>  <Name_Molregno>
354153

>  <5-HT2A>
6.2

>  <5-HT2C>
8.3

$$$$
354154
  Marvin  02231216192D 0   1.00000     0.00000     0

 32 35  0  0  0  0  0  0  0  0999 V2000
    5.0558    1.2157    0.0000 Cl  0  0  0  0  0  0  0  0  0
    4.3413    0.8032    0.0000 C   0  0  0  0  0  0  0  0  0
    4.3413   -0.0218    0.0000 C   0  0  0  0  0  0  0  0  0
    3.6269   -0.4343    0.0000 C   0  0  0  0  0  0  0  0  0
    3.6269   -1.2593    0.0000 N   0  0  0  0  0  0  0  0  0
    4.2943   -1.7443    0.0000 C   0  0  0  0  0  0  0  0  0
    4.0394   -2.5289    0.0000 C   0  0  0  0  0  0  0  0  0
    3.2144   -2.5289    0.0000 C   0  0  0  0  0  0  0  0  0
    2.7294   -3.1963    0.0000 C   0  0  0  0  0  0  0  0  0
    3.0650   -3.9500    0.0000 C   0  0  0  0  0  0  0  0  0
    2.5801   -4.6174    0.0000 C   0  0  0  0  0  0  0  0  0
    2.9156   -5.3711    0.0000 O   0  0  0  0  0  0  0  0  0
    2.4307   -6.0386    0.0000 C   0  0  0  0  0  0  0  0  0
    2.7663   -6.7922    0.0000 C   0  0  0  0  0  0  0  0  0
    2.2814   -7.4597    0.0000 N   0  0  0  0  0  0  0  0  0
    2.6169   -8.2133    0.0000 C   0  0  0  0  0  0  0  0  0
    2.1320   -8.8808    0.0000 C   0  0  0  0  0  0  0  0  0
    1.3115   -8.7945    0.0000 C   0  0  0  0  0  0  0  0  0
    0.9759   -8.0409    0.0000 C   0  0  0  0  0  0  0  0  0
    1.4609   -7.3734    0.0000 C   0  0  0  0  0  0  0  0  0
    1.7596   -4.5312    0.0000 C   0  0  0  0  0  0  0  0  0
    1.2747   -5.1986    0.0000 O   0  0  0  0  0  0  0  0  0
    0.4542   -5.1124    0.0000 C   0  0  0  0  0  0  0  0  0
    1.4240   -3.7775    0.0000 C   0  0  0  0  0  0  0  0  0
    1.9090   -3.1101    0.0000 C   0  0  0  0  0  0  0  0  0
    2.9594   -1.7443    0.0000 C   0  0  0  0  0  0  0  0  0
    2.1748   -1.4893    0.0000 O   0  0  0  0  0  0  0  0  0
    2.9124   -0.0218    0.0000 C   0  0  0  0  0  0  0  0  0
    2.9124    0.8032    0.0000 C   0  0  0  0  0  0  0  0  0
    3.6269    1.2157    0.0000 C   0  0  0  0  0  0  0  0  0
    3.6269    2.0407    0.0000 O   0  0  0  0  0  0  0  0  0
    2.9124    2.4532    0.0000 C   0  0  0  0  0  0  0  0  0
  1  2  1  0  0  0  0
  2  3  4  0  0  0  0
  2 30  4  0  0  0  0
  3  4  4  0  0  0  0
  4  5  1  0  0  0  0
  4 28  4  0  0  0  0
  5  6  1  0  0  0  0
  5 26  1  0  0  0  0
  6  7  1  0  0  0  0
  7  8  2  0  0  0  0
  8  9  1  0  0  0  0
  8 26  1  0  0  0  0
  9 10  4  0  0  0  0
  9 25  4  0  0  0  0
 10 11  4  0  0  0  0
 11 12  1  0  0  0  0
 11 21  4  0  0  0  0
 12 13  1  0  0  0  0
 13 14  1  0  0  0  0
 14 15  1  0  0  0  0
 15 16  1  0  0  0  0
 15 20  1  0  0  0  0
 16 17  1  0  0  0  0
 17 18  1  0  0  0  0
 18 19  1  0  0  0  0
 19 20  1  0  0  0  0
 21 22  1  0  0  0  0
 21 24  4  0  0  0  0
 22 23  1  0  0  0  0
 24 25  4  0  0  0  0
 26 27  2  0  0  0  0
 28 29  4  0  0  0  0
 29 30  4  0  0  0  0
 30 31  1  0  0  0  0
 31 32  1  0  0  0  0
M  END
>  <Name_Molregno>
354154

>  <5-HT2A>
5.2

>  <5-HT2C>
8.3

$$$$
354174
  Marvin  02231216192D 0   1.00000     0.00000     0

 30 33  0  0  0  0  0  0  0  0999 V2000
    5.3737    1.4190    0.0000 Cl  0  0  0  0  0  0  0  0  0
    4.6592    1.0065    0.0000 C   0  0  0  0  0  0  0  0  0
    4.6592    0.1815    0.0000 C   0  0  0  0  0  0  0  0  0
    3.9447   -0.2310    0.0000 C   0  0  0  0  0  0  0  0  0
    3.2302    0.1815    0.0000 C   0  0  0  0  0  0  0  0  0
    3.2302    1.0065    0.0000 C   0  0  0  0  0  0  0  0  0
    3.9447    1.4190    0.0000 C   0  0  0  0  0  0  0  0  0
    3.9447   -1.0560    0.0000 C   0  0  0  0  0  0  0  0  0
    4.6122   -1.5409    0.0000 C   0  0  0  0  0  0  0  0  0
    4.3572   -2.3256    0.0000 C   0  0  0  0  0  0  0  0  0
    3.5322   -2.3256    0.0000 N   0  0  0  0  0  0  0  0  0
    3.2773   -1.5409    0.0000 C   0  0  0  0  0  0  0  0  0
    2.4927   -1.2860    0.0000 O   0  0  0  0  0  0  0  0  0
    3.0473   -2.9930    0.0000 C   0  0  0  0  0  0  0  0  0
    3.3829   -3.7467    0.0000 C   0  0  0  0  0  0  0  0  0
    2.8979   -4.4141    0.0000 C   0  0  0  0  0  0  0  0  0
    3.2335   -5.1678    0.0000 O   0  0  0  0  0  0  0  0  0
    2.7486   -5.8352    0.0000 C   0  0  0  0  0  0  0  0  0
    3.0841   -6.5889    0.0000 C   0  0  0  0  0  0  0  0  0
    2.5992   -7.2563    0.0000 N   0  0  0  0  0  0  0  0  0
    2.9348   -8.0100    0.0000 C   0  0  0  0  0  0  0  0  0
    2.4498   -8.6775    0.0000 C   0  0  0  0  0  0  0  0  0
    1.6294   -8.5912    0.0000 C   0  0  0  0  0  0  0  0  0
    1.2938   -7.8375    0.0000 C   0  0  0  0  0  0  0  0  0
    1.7787   -7.1701    0.0000 C   0  0  0  0  0  0  0  0  0
    2.0775   -4.3279    0.0000 C   0  0  0  0  0  0  0  0  0
    1.5925   -4.9953    0.0000 O   0  0  0  0  0  0  0  0  0
    0.7720   -4.9091    0.0000 C   0  0  0  0  0  0  0  0  0
    1.7419   -3.5742    0.0000 C   0  0  0  0  0  0  0  0  0
    2.2268   -2.9068    0.0000 C   0  0  0  0  0  0  0  0  0
  1  2  1  0  0  0  0
  2  3  4  0  0  0  0
  2  7  4  0  0  0  0
  3  4  4  0  0  0  0
  4  5  4  0  0  0  0
  4  8  1  0  0  0  0
  5  6  4  0  0  0  0
  6  7  4  0  0  0  0
  8  9  2  0  0  0  0
  8 12  1  0  0  0  0
  9 10  1  0  0  0  0
 10 11  1  0  0  0  0
 11 12  1  0  0  0  0
 11 14  1  0  0  0  0
 12 13  2  0  0  0  0
 14 15  4  0  0  0  0
 14 30  4  0  0  0  0
 15 16  4  0  0  0  0
 16 17  1  0  0  0  0
 16 26  4  0  0  0  0
 17 18  1  0  0  0  0
 18 19  1  0  0  0  0
 19 20  1  0  0  0  0
 20 21  1  0  0  0  0
 20 25  1  0  0  0  0
 21 22  1  0  0  0  0
 22 23  1  0  0  0  0
 23 24  1  0  0  0  0
 24 25  1  0  0  0  0
 26 27  1  0  0  0  0
 26 29  4  0  0  0  0
 27 28  1  0  0  0  0
 29 30  4  0  0  0  0
M  END
>  <Name_Molregno>
354174

>  <5-HT2A>
6.2

>  <5-HT2C>
8.6

$$$$
354175
  Marvin  02231216192D 0   1.00000     0.00000     0

 30 33  0  0  0  0  0  0  0  0999 V2000
    5.9765    6.5629    0.0000 Cl  0  0  0  0  0  0  0  0  0
    5.9765    5.7379    0.0000 C   0  0  0  0  0  0  0  0  0
    6.6909    5.3254    0.0000 C   0  0  0  0  0  0  0  0  0
    6.6909    4.5004    0.0000 C   0  0  0  0  0  0  0  0  0
    5.9765    4.0879    0.0000 C   0  0  0  0  0  0  0  0  0
    5.2620    4.5004    0.0000 C   0  0  0  0  0  0  0  0  0
    5.2620    5.3254    0.0000 C   0  0  0  0  0  0  0  0  0
    5.9765    3.2629    0.0000 C   0  0  0  0  0  0  0  0  0
    6.6439    2.7779    0.0000 C   0  0  0  0  0  0  0  0  0
    6.3890    1.9933    0.0000 C   0  0  0  0  0  0  0  0  0
    5.5640    1.9933    0.0000 N   0  0  0  0  0  0  0  0  0
    5.3090    2.7779    0.0000 C   0  0  0  0  0  0  0  0  0
    4.5244    3.0329    0.0000 O   0  0  0  0  0  0  0  0  0
    5.0791    1.3259    0.0000 C   0  0  0  0  0  0  0  0  0
    5.4146    0.5722    0.0000 C   0  0  0  0  0  0  0  0  0
    4.9297   -0.0952    0.0000 C   0  0  0  0  0  0  0  0  0
    5.2652   -0.8489    0.0000 O   0  0  0  0  0  0  0  0  0
    4.7803   -1.5164    0.0000 C   0  0  0  0  0  0  0  0  0
    5.1159   -2.2700    0.0000 C   0  0  0  0  0  0  0  0  0
    4.6310   -2.9375    0.0000 N   0  0  0  0  0  0  0  0  0
    4.9665   -3.6911    0.0000 C   0  0  0  0  0  0  0  0  0
    4.4816   -4.3586    0.0000 C   0  0  0  0  0  0  0  0  0
    3.6611   -4.2723    0.0000 C   0  0  0  0  0  0  0  0  0
    3.3256   -3.5187    0.0000 C   0  0  0  0  0  0  0  0  0
    3.8105   -2.8512    0.0000 C   0  0  0  0  0  0  0  0  0
    4.1092   -0.0090    0.0000 C   0  0  0  0  0  0  0  0  0
    3.6243   -0.6764    0.0000 O   0  0  0  0  0  0  0  0  0
    2.8038   -0.5902    0.0000 C   0  0  0  0  0  0  0  0  0
    3.7737    0.7447    0.0000 C   0  0  0  0  0  0  0  0  0
    4.2586    1.4121    0.0000 C   0  0  0  0  0  0  0  0  0
  1  2  1  0  0  0  0
  2  3  4  0  0  0  0
  2  7  4  0  0  0  0
  3  4  4  0  0  0  0
  4  5  4  0  0  0  0
  5  6  4  0  0  0  0
  5  8  1  0  0  0  0
  6  7  4  0  0  0  0
  8  9  2  0  0  0  0
  8 12  1  0  0  0  0
  9 10  1  0  0  0  0
 10 11  1  0  0  0  0
 11 12  1  0  0  0  0
 11 14  1  0  0  0  0
 12 13  2  0  0  0  0
 14 15  4  0  0  0  0
 14 30  4  0  0  0  0
 15 16  4  0  0  0  0
 16 17  1  0  0  0  0
 16 26  4  0  0  0  0
 17 18  1  0  0  0  0
 18 19  1  0  0  0  0
 19 20  1  0  0  0  0
 20 21  1  0  0  0  0
 20 25  1  0  0  0  0
 21 22  1  0  0  0  0
 22 23  1  0  0  0  0
 23 24  1  0  0  0  0
 24 25  1  0  0  0  0
 26 27  1  0  0  0  0
 26 29  4  0  0  0  0
 27 28  1  0  0  0  0
 29 30  4  0  0  0  0
M  END
>  <Name_Molregno>
354175

>  <5-HT2A>
6

>  <5-HT2C>
8.1

$$$$
354182
  Marvin  02231216192D 0   1.00000     0.00000     0

 33 36  0  0  1  0  0  0  0  0999 V2000
    5.3749    4.2351    0.0000 Cl  0  0  0  0  0  0  0  0  0
    5.1200    3.4504    0.0000 C   0  0  0  0  0  0  0  0  0
    5.6720    2.8373    0.0000 C   0  0  0  0  0  0  0  0  0
    5.4171    2.0527    0.0000 C   0  0  0  0  0  0  0  0  0
    4.6101    1.8812    0.0000 C   0  0  0  0  0  0  0  0  0
    4.0581    2.4943    0.0000 C   0  0  0  0  0  0  0  0  0
    4.3130    3.2789    0.0000 C   0  0  0  0  0  0  0  0  0
    3.7610    3.8920    0.0000 Cl  0  0  0  0  0  0  0  0  0
    5.9691    1.4396    0.0000 C   0  0  0  0  0  0  0  0  0
    6.6365    0.9547    0.0000 C   0  0  0  0  0  0  0  0  0
    6.3816    0.1701    0.0000 C   0  0  0  0  0  0  0  0  0
    5.5566    0.1701    0.0000 N   0  0  0  0  0  0  0  0  0
    5.3017    0.9547    0.0000 C   0  0  0  0  0  0  0  0  0
    4.5170    1.2096    0.0000 O   0  0  0  0  0  0  0  0  0
    5.0717   -0.4974    0.0000 C   0  0  0  0  0  0  0  0  0
    5.4072   -1.2510    0.0000 C   0  0  0  0  0  0  0  0  0
    4.9223   -1.9185    0.0000 C   0  0  0  0  0  0  0  0  0
    5.2579   -2.6721    0.0000 O   0  0  0  0  0  0  0  0  0
    4.7730   -3.3396    0.0000 C   0  0  0  0  0  0  0  0  0
    5.1085   -4.0933    0.0000 C   0  0  0  0  0  0  0  0  0
    4.6236   -4.7607    0.0000 N   0  0  0  0  0  0  0  0  0
    4.9591   -5.5144    0.0000 C   0  0  0  0  0  0  0  0  0
    4.4742   -6.1818    0.0000 C   0  0  0  0  0  0  0  0  0
    3.6537   -6.0956    0.0000 C   0  0  0  0  0  0  0  0  0
    3.3182   -5.3419    0.0000 C   0  0  0  0  0  0  0  0  0
    3.8031   -4.6745    0.0000 C   0  0  0  0  0  0  0  0  0
    3.1688   -6.7630    0.0000 C   0  0  0  0  0  0  0  0  0
    4.1018   -1.8322    0.0000 C   0  0  0  0  0  0  0  0  0
    3.6169   -2.4997    0.0000 O   0  0  0  0  0  0  0  0  0
    2.7964   -2.4134    0.0000 C   0  0  0  0  0  0  0  0  0
    3.7663   -1.0786    0.0000 C   0  0  0  0  0  0  0  0  0
    4.2512   -0.4111    0.0000 C   0  0  0  0  0  0  0  0  0
    6.5211    2.0527    0.0000 C   0  0  0  0  0  0  0  0  0
  1  2  1  0  0  0  0
  2  3  4  0  0  0  0
  2  7  4  0  0  0  0
  3  4  4  0  0  0  0
  4  5  4  0  0  0  0
  4  9  1  0  0  0  0
  5  6  4  0  0  0  0
  6  7  4  0  0  0  0
  7  8  1  0  0  0  0
  9 10  1  0  0  0  0
  9 13  1  0  0  0  0
  9 33  1  0  0  0  0
 10 11  1  0  0  0  0
 11 12  1  0  0  0  0
 12 13  1  0  0  0  0
 12 15  1  0  0  0  0
 13 14  2  0  0  0  0
 15 16  4  0  0  0  0
 15 32  4  0  0  0  0
 16 17  4  0  0  0  0
 17 18  1  0  0  0  0
 17 28  4  0  0  0  0
 18 19  1  0  0  0  0
 19 20  1  0  0  0  0
 20 21  1  0  0  0  0
 21 22  1  0  0  0  0
 21 26  1  0  0  0  0
 22 23  1  0  0  0  0
 23 24  1  0  0  0  0
 24 25  1  0  0  0  0
 24 27  1  0  0  0  0
 25 26  1  0  0  0  0
 28 29  1  0  0  0  0
 28 31  4  0  0  0  0
 29 30  1  0  0  0  0
 31 32  4  0  0  0  0
M  END
>  <Name_Molregno>
354182

>  <5-HT2A>
6.3

>  <5-HT2C>
8.3

$$$$
354183
  Marvin  02231216192D 0   1.00000     0.00000     0

 31 34  0  0  1  0  0  0  0  0999 V2000
    3.1852   -0.0091    0.0000 O   0  0  0  0  0  0  0  0  0
    3.1852    0.8159    0.0000 C   0  0  0  0  0  0  0  0  0
    3.8997    1.2284    0.0000 C   0  0  0  0  0  0  0  0  0
    3.8997    2.0534    0.0000 N   0  0  0  0  0  0  0  0  0
    3.1852    2.4659    0.0000 C   0  0  0  0  0  0  0  0  0
    3.1852    3.2909    0.0000 C   0  0  0  0  0  0  0  0  0
    3.8997    3.7034    0.0000 C   0  0  0  0  0  0  0  0  0
    4.6141    3.2909    0.0000 C   0  0  0  0  0  0  0  0  0
    4.6141    2.4659    0.0000 C   0  0  0  0  0  0  0  0  0
    2.4707   -0.4216    0.0000 C   0  0  0  0  0  0  0  0  0
    2.4707   -1.2466    0.0000 C   0  0  0  0  0  0  0  0  0
    1.7562   -1.6591    0.0000 C   0  0  0  0  0  0  0  0  0
    1.0418   -1.2466    0.0000 C   0  0  0  0  0  0  0  0  0
    1.0418   -0.4216    0.0000 C   0  0  0  0  0  0  0  0  0
    1.7562   -0.0091    0.0000 C   0  0  0  0  0  0  0  0  0
    1.7562    0.8159    0.0000 O   0  0  0  0  0  0  0  0  0
    1.0418    1.2284    0.0000 C   0  0  0  0  0  0  0  0  0
    1.7562   -2.4841    0.0000 C   0  0  0  0  0  0  0  0  0
    2.4237   -2.9690    0.0000 C   0  0  0  0  0  0  0  0  0
    2.1687   -3.7536    0.0000 C   0  0  0  0  0  0  0  0  0
    1.3437   -3.7536    0.0000 N   0  0  0  0  0  0  0  0  0
    1.0888   -2.9690    0.0000 C   0  0  0  0  0  0  0  0  0
    0.3042   -2.7141    0.0000 O   0  0  0  0  0  0  0  0  0
    0.8588   -4.4211    0.0000 C   0  0  0  0  0  0  0  0  0
    1.1944   -5.1747    0.0000 C   0  0  0  0  0  0  0  0  0
    0.7094   -5.8422    0.0000 C   0  0  0  0  0  0  0  0  0
   -0.1110   -5.7559    0.0000 C   0  0  0  0  0  0  0  0  0
   -0.5960   -6.4234    0.0000 O   0  0  0  0  0  0  0  0  0
   -0.2604   -7.1771    0.0000 C   0  0  0  0  0  0  0  0  0
   -0.4466   -5.0023    0.0000 C   0  0  0  0  0  0  0  0  0
    0.0383   -4.3348    0.0000 C   0  0  0  0  0  0  0  0  0
  1  2  1  0  0  0  0
  1 10  1  0  0  0  0
  2  3  1  0  0  0  0
  3  4  1  0  0  0  0
  4  5  1  0  0  0  0
  4  9  1  0  0  0  0
  5  6  1  0  0  0  0
  6  7  1  0  0  0  0
  7  8  1  0  0  0  0
  8  9  1  0  0  0  0
 10 11  4  0  0  0  0
 10 15  4  0  0  0  0
 11 12  4  0  0  0  0
 12 13  4  0  0  0  0
 12 18  1  0  0  0  0
 13 14  4  0  0  0  0
 14 15  4  0  0  0  0
 15 16  1  0  0  0  0
 16 17  1  0  0  0  0
 18 19  1  0  0  0  0
 18 22  1  0  0  0  0
 19 20  1  0  0  0  0
 20 21  1  0  0  0  0
 21 22  1  0  0  0  0
 21 24  1  0  0  0  0
 22 23  2  0  0  0  0
 24 25  4  0  0  0  0
 24 31  4  0  0  0  0
 25 26  4  0  0  0  0
 26 27  4  0  0  0  0
 27 28  1  0  0  0  0
 27 30  4  0  0  0  0
 28 29  1  0  0  0  0
 30 31  4  0  0  0  0
M  END
>  <Name_Molregno>
354183

>  <5-HT2A>
5

>  <5-HT2C>
7

$$$$
354203
  Marvin  02231216192D 0   1.00000     0.00000     0

 31 34  0  0  0  0  0  0  0  0999 V2000
    6.2284    5.7720    0.0000 Cl  0  0  0  0  0  0  0  0  0
    6.2284    4.9470    0.0000 C   0  0  0  0  0  0  0  0  0
    6.9429    4.5345    0.0000 C   0  0  0  0  0  0  0  0  0
    6.9429    3.7095    0.0000 C   0  0  0  0  0  0  0  0  0
    6.2284    3.2970    0.0000 C   0  0  0  0  0  0  0  0  0
    5.5139    3.7095    0.0000 C   0  0  0  0  0  0  0  0  0
    5.5139    4.5345    0.0000 C   0  0  0  0  0  0  0  0  0
    6.2284    2.4720    0.0000 C   0  0  0  0  0  0  0  0  0
    6.8958    1.9870    0.0000 C   0  0  0  0  0  0  0  0  0
    6.6409    1.2024    0.0000 C   0  0  0  0  0  0  0  0  0
    5.8159    1.2024    0.0000 N   0  0  0  0  0  0  0  0  0
    5.5609    1.9870    0.0000 C   0  0  0  0  0  0  0  0  0
    4.7763    2.2420    0.0000 O   0  0  0  0  0  0  0  0  0
    5.3310    0.5350    0.0000 C   0  0  0  0  0  0  0  0  0
    5.6665   -0.2187    0.0000 C   0  0  0  0  0  0  0  0  0
    5.1816   -0.8861    0.0000 C   0  0  0  0  0  0  0  0  0
    5.5172   -1.6398    0.0000 O   0  0  0  0  0  0  0  0  0
    5.0322   -2.3072    0.0000 C   0  0  0  0  0  0  0  0  0
    5.3678   -3.0609    0.0000 C   0  0  0  0  0  0  0  0  0
    4.8829   -3.7284    0.0000 N   0  0  0  0  0  0  0  0  0
    5.2184   -4.4820    0.0000 C   0  0  0  0  0  0  0  0  0
    4.7335   -5.1495    0.0000 C   0  0  0  0  0  0  0  0  0
    3.9130   -5.0632    0.0000 C   0  0  0  0  0  0  0  0  0
    3.5775   -4.3096    0.0000 C   0  0  0  0  0  0  0  0  0
    4.0624   -3.6421    0.0000 C   0  0  0  0  0  0  0  0  0
    3.4281   -5.7307    0.0000 C   0  0  0  0  0  0  0  0  0
    4.3611   -0.7999    0.0000 C   0  0  0  0  0  0  0  0  0
    3.8762   -1.4673    0.0000 O   0  0  0  0  0  0  0  0  0
    3.0557   -1.3811    0.0000 C   0  0  0  0  0  0  0  0  0
    4.0256   -0.0462    0.0000 C   0  0  0  0  0  0  0  0  0
    4.5105    0.6212    0.0000 C   0  0  0  0  0  0  0  0  0
  1  2  1  0  0  0  0
  2  3  4  0  0  0  0
  2  7  4  0  0  0  0
  3  4  4  0  0  0  0
  4  5  4  0  0  0  0
  5  6  4  0  0  0  0
  5  8  1  0  0  0  0
  6  7  4  0  0  0  0
  8  9  2  0  0  0  0
  8 12  1  0  0  0  0
  9 10  1  0  0  0  0
 10 11  1  0  0  0  0
 11 12  1  0  0  0  0
 11 14  1  0  0  0  0
 12 13  2  0  0  0  0
 14 15  4  0  0  0  0
 14 31  4  0  0  0  0
 15 16  4  0  0  0  0
 16 17  1  0  0  0  0
 16 27  4  0  0  0  0
 17 18  1  0  0  0  0
 18 19  1  0  0  0  0
 19 20  1  0  0  0  0
 20 21  1  0  0  0  0
 20 25  1  0  0  0  0
 21 22  1  0  0  0  0
 22 23  1  0  0  0  0
 23 24  1  0  0  0  0
 23 26  1  0  0  0  0
 24 25  1  0  0  0  0
 27 28  1  0  0  0  0
 27 30  4  0  0  0  0
 28 29  1  0  0  0  0
 30 31  4  0  0  0  0
M  END
>  <Name_Molregno>
354203

>  <5-HT2A>
6.2

>  <5-HT2C>
8.2

$$$$
354213
  Marvin  02231216192D 0   1.00000     0.00000     0

 32 35  0  0  1  0  0  0  0  0999 V2000
    5.0558    1.2157    0.0000 Cl  0  0  0  0  0  0  0  0  0
    4.3413    0.8032    0.0000 C   0  0  0  0  0  0  0  0  0
    4.3413   -0.0218    0.0000 C   0  0  0  0  0  0  0  0  0
    3.6269   -0.4343    0.0000 C   0  0  0  0  0  0  0  0  0
    3.6269   -1.2593    0.0000 N   0  0  0  0  0  0  0  0  0
    4.2943   -1.7443    0.0000 C   0  0  0  0  0  0  0  0  0
    4.0394   -2.5289    0.0000 C   0  0  0  0  0  0  0  0  0
    3.2144   -2.5289    0.0000 C   0  0  0  0  0  0  0  0  0
    2.7294   -3.1963    0.0000 C   0  0  0  0  0  0  0  0  0
    3.0650   -3.9500    0.0000 C   0  0  0  0  0  0  0  0  0
    2.5801   -4.6174    0.0000 C   0  0  0  0  0  0  0  0  0
    2.9156   -5.3711    0.0000 O   0  0  0  0  0  0  0  0  0
    2.4307   -6.0386    0.0000 C   0  0  0  0  0  0  0  0  0
    2.7663   -6.7922    0.0000 C   0  0  0  0  0  0  0  0  0
    2.2814   -7.4597    0.0000 N   0  0  0  0  0  0  0  0  0
    2.6169   -8.2133    0.0000 C   0  0  0  0  0  0  0  0  0
    2.1320   -8.8808    0.0000 C   0  0  0  0  0  0  0  0  0
    1.3115   -8.7945    0.0000 C   0  0  0  0  0  0  0  0  0
    0.9759   -8.0409    0.0000 C   0  0  0  0  0  0  0  0  0
    1.4609   -7.3734    0.0000 C   0  0  0  0  0  0  0  0  0
    1.7596   -4.5312    0.0000 C   0  0  0  0  0  0  0  0  0
    1.2747   -5.1986    0.0000 O   0  0  0  0  0  0  0  0  0
    0.4542   -5.1124    0.0000 C   0  0  0  0  0  0  0  0  0
    1.4240   -3.7775    0.0000 C   0  0  0  0  0  0  0  0  0
    1.9090   -3.1101    0.0000 C   0  0  0  0  0  0  0  0  0
    2.9594   -1.7443    0.0000 C   0  0  0  0  0  0  0  0  0
    2.1748   -1.4893    0.0000 O   0  0  0  0  0  0  0  0  0
    2.9124   -0.0218    0.0000 C   0  0  0  0  0  0  0  0  0
    2.9124    0.8032    0.0000 C   0  0  0  0  0  0  0  0  0
    3.6269    1.2157    0.0000 C   0  0  0  0  0  0  0  0  0
    3.6269    2.0407    0.0000 O   0  0  0  0  0  0  0  0  0
    2.9124    2.4532    0.0000 C   0  0  0  0  0  0  0  0  0
  1  2  1  0  0  0  0
  2  3  4  0  0  0  0
  2 30  4  0  0  0  0
  3  4  4  0  0  0  0
  4  5  1  0  0  0  0
  4 28  4  0  0  0  0
  5  6  1  0  0  0  0
  5 26  1  0  0  0  0
  6  7  1  0  0  0  0
  7  8  1  0  0  0  0
  8  9  1  0  0  0  0
  8 26  1  0  0  0  0
  9 10  4  0  0  0  0
  9 25  4  0  0  0  0
 10 11  4  0  0  0  0
 11 12  1  0  0  0  0
 11 21  4  0  0  0  0
 12 13  1  0  0  0  0
 13 14  1  0  0  0  0
 14 15  1  0  0  0  0
 15 16  1  0  0  0  0
 15 20  1  0  0  0  0
 16 17  1  0  0  0  0
 17 18  1  0  0  0  0
 18 19  1  0  0  0  0
 19 20  1  0  0  0  0
 21 22  1  0  0  0  0
 21 24  4  0  0  0  0
 22 23  1  0  0  0  0
 24 25  4  0  0  0  0
 26 27  2  0  0  0  0
 28 29  4  0  0  0  0
 29 30  4  0  0  0  0
 30 31  1  0  0  0  0
 31 32  1  0  0  0  0
M  END
>  <Name_Molregno>
354213

>  <5-HT2A>
5.7

>  <5-HT2C>
7.7

$$$$
354233
  Marvin  02231216192D 0   1.00000     0.00000     0

 32 35  0  0  0  0  0  0  0  0999 V2000
    6.1033    5.5636    0.0000 Cl  0  0  0  0  0  0  0  0  0
    6.1033    4.7386    0.0000 C   0  0  0  0  0  0  0  0  0
    6.8177    4.3261    0.0000 C   0  0  0  0  0  0  0  0  0
    6.8177    3.5011    0.0000 C   0  0  0  0  0  0  0  0  0
    6.1033    3.0886    0.0000 C   0  0  0  0  0  0  0  0  0
    5.3888    3.5011    0.0000 C   0  0  0  0  0  0  0  0  0
    5.3888    4.3261    0.0000 C   0  0  0  0  0  0  0  0  0
    4.6743    4.7386    0.0000 F   0  0  0  0  0  0  0  0  0
    6.1033    2.2636    0.0000 C   0  0  0  0  0  0  0  0  0
    6.7707    1.7787    0.0000 C   0  0  0  0  0  0  0  0  0
    6.5158    0.9941    0.0000 C   0  0  0  0  0  0  0  0  0
    5.6908    0.9941    0.0000 N   0  0  0  0  0  0  0  0  0
    5.4358    1.7787    0.0000 C   0  0  0  0  0  0  0  0  0
    4.6512    2.0337    0.0000 O   0  0  0  0  0  0  0  0  0
    5.2058    0.3267    0.0000 C   0  0  0  0  0  0  0  0  0
    5.5414   -0.4270    0.0000 C   0  0  0  0  0  0  0  0  0
    5.0565   -1.0945    0.0000 C   0  0  0  0  0  0  0  0  0
    5.3920   -1.8481    0.0000 O   0  0  0  0  0  0  0  0  0
    4.9071   -2.5156    0.0000 C   0  0  0  0  0  0  0  0  0
    5.2427   -3.2692    0.0000 C   0  0  0  0  0  0  0  0  0
    4.7577   -3.9367    0.0000 N   0  0  0  0  0  0  0  0  0
    5.0933   -4.6904    0.0000 C   0  0  0  0  0  0  0  0  0
    4.6084   -5.3578    0.0000 C   0  0  0  0  0  0  0  0  0
    3.7879   -5.2716    0.0000 C   0  0  0  0  0  0  0  0  0
    3.4523   -4.5179    0.0000 C   0  0  0  0  0  0  0  0  0
    3.9373   -3.8505    0.0000 C   0  0  0  0  0  0  0  0  0
    3.3030   -5.9390    0.0000 C   0  0  0  0  0  0  0  0  0
    4.2360   -1.0082    0.0000 C   0  0  0  0  0  0  0  0  0
    3.7511   -1.6757    0.0000 O   0  0  0  0  0  0  0  0  0
    2.9306   -1.5894    0.0000 C   0  0  0  0  0  0  0  0  0
    3.9004   -0.2545    0.0000 C   0  0  0  0  0  0  0  0  0
    4.3854    0.4129    0.0000 C   0  0  0  0  0  0  0  0  0
  1  2  1  0  0  0  0
  2  3  4  0  0  0  0
  2  7  4  0  0  0  0
  3  4  4  0  0  0  0
  4  5  4  0  0  0  0
  5  6  4  0  0  0  0
  5  9  1  0  0  0  0
  6  7  4  0  0  0  0
  7  8  1  0  0  0  0
  9 10  2  0  0  0  0
  9 13  1  0  0  0  0
 10 11  1  0  0  0  0
 11 12  1  0  0  0  0
 12 13  1  0  0  0  0
 12 15  1  0  0  0  0
 13 14  2  0  0  0  0
 15 16  4  0  0  0  0
 15 32  4  0  0  0  0
 16 17  4  0  0  0  0
 17 18  1  0  0  0  0
 17 28  4  0  0  0  0
 18 19  1  0  0  0  0
 19 20  1  0  0  0  0
 20 21  1  0  0  0  0
 21 22  1  0  0  0  0
 21 26  1  0  0  0  0
 22 23  1  0  0  0  0
 23 24  1  0  0  0  0
 24 25  1  0  0  0  0
 24 27  1  0  0  0  0
 25 26  1  0  0  0  0
 28 29  1  0  0  0  0
 28 31  4  0  0  0  0
 29 30  1  0  0  0  0
 31 32  4  0  0  0  0
M  END
>  <Name_Molregno>
354233

>  <5-HT2A>
5.9

>  <5-HT2C>
8.1

$$$$
354243
  Marvin  02231216192D 0   1.00000     0.00000     0

 30 33  0  0  1  0  0  0  0  0999 V2000
    3.3464    2.2331    0.0000 Cl  0  0  0  0  0  0  0  0  0
    3.3464    1.4081    0.0000 C   0  0  0  0  0  0  0  0  0
    4.0608    0.9956    0.0000 C   0  0  0  0  0  0  0  0  0
    4.0608    0.1706    0.0000 C   0  0  0  0  0  0  0  0  0
    3.3464   -0.2419    0.0000 C   0  0  0  0  0  0  0  0  0
    3.3464   -1.0669    0.0000 N   0  0  0  0  0  0  0  0  0
    4.0138   -1.5518    0.0000 C   0  0  0  0  0  0  0  0  0
    3.7589   -2.3365    0.0000 C   0  0  0  0  0  0  0  0  0
    2.9339   -2.3365    0.0000 C   0  0  0  0  0  0  0  0  0
    2.4489   -3.0039    0.0000 C   0  0  0  0  0  0  0  0  0
    2.7845   -3.7576    0.0000 C   0  0  0  0  0  0  0  0  0
    2.2996   -4.4250    0.0000 C   0  0  0  0  0  0  0  0  0
    2.6351   -5.1787    0.0000 Cl  0  0  0  0  0  0  0  0  0
    1.4791   -4.3388    0.0000 C   0  0  0  0  0  0  0  0  0
    0.9942   -5.0062    0.0000 Cl  0  0  0  0  0  0  0  0  0
    1.1435   -3.5851    0.0000 C   0  0  0  0  0  0  0  0  0
    1.6285   -2.9177    0.0000 C   0  0  0  0  0  0  0  0  0
    2.6789   -1.5518    0.0000 C   0  0  0  0  0  0  0  0  0
    1.8943   -1.2969    0.0000 O   0  0  0  0  0  0  0  0  0
    2.6319    0.1706    0.0000 C   0  0  0  0  0  0  0  0  0
    2.6319    0.9956    0.0000 C   0  0  0  0  0  0  0  0  0
    1.9174    1.4081    0.0000 O   0  0  0  0  0  0  0  0  0
    1.9174    2.2331    0.0000 C   0  0  0  0  0  0  0  0  0
    1.2029    2.6456    0.0000 C   0  0  0  0  0  0  0  0  0
    1.2029    3.4706    0.0000 N   0  0  0  0  0  0  0  0  0
    0.4885    3.8831    0.0000 C   0  0  0  0  0  0  0  0  0
    0.4885    4.7081    0.0000 C   0  0  0  0  0  0  0  0  0
    1.2029    5.1206    0.0000 C   0  0  0  0  0  0  0  0  0
    1.9174    4.7081    0.0000 C   0  0  0  0  0  0  0  0  0
    1.9174    3.8831    0.0000 C   0  0  0  0  0  0  0  0  0
  1  2  1  0  0  0  0
  2  3  4  0  0  0  0
  2 21  4  0  0  0  0
  3  4  4  0  0  0  0
  4  5  4  0  0  0  0
  5  6  1  0  0  0  0
  5 20  4  0  0  0  0
  6  7  1  0  0  0  0
  6 18  1  0  0  0  0
  7  8  1  0  0  0  0
  8  9  1  0  0  0  0
  9 10  1  0  0  0  0
  9 18  1  0  0  0  0
 10 11  4  0  0  0  0
 10 17  4  0  0  0  0
 11 12  4  0  0  0  0
 12 13  1  0  0  0  0
 12 14  4  0  0  0  0
 14 15  1  0  0  0  0
 14 16  4  0  0  0  0
 16 17  4  0  0  0  0
 18 19  2  0  0  0  0
 20 21  4  0  0  0  0
 21 22  1  0  0  0  0
 22 23  1  0  0  0  0
 23 24  1  0  0  0  0
 24 25  1  0  0  0  0
 25 26  1  0  0  0  0
 25 30  1  0  0  0  0
 26 27  1  0  0  0  0
 27 28  1  0  0  0  0
 28 29  1  0  0  0  0
 29 30  1  0  0  0  0
M  END
>  <Name_Molregno>
354243

>  <5-HT2A>
6

>  <5-HT2C>
7

$$$$
354265
  Marvin  02231216192D 0   1.00000     0.00000     0

 31 34  0  0  0  0  0  0  0  0999 V2000
    6.2284    5.7720    0.0000 F   0  0  0  0  0  0  0  0  0
    6.2284    4.9470    0.0000 C   0  0  0  0  0  0  0  0  0
    6.9429    4.5345    0.0000 C   0  0  0  0  0  0  0  0  0
    6.9429    3.7095    0.0000 C   0  0  0  0  0  0  0  0  0
    6.2284    3.2970    0.0000 C   0  0  0  0  0  0  0  0  0
    5.5139    3.7095    0.0000 C   0  0  0  0  0  0  0  0  0
    5.5139    4.5345    0.0000 C   0  0  0  0  0  0  0  0  0
    6.2284    2.4720    0.0000 C   0  0  0  0  0  0  0  0  0
    6.8958    1.9870    0.0000 C   0  0  0  0  0  0  0  0  0
    6.6409    1.2024    0.0000 C   0  0  0  0  0  0  0  0  0
    5.8159    1.2024    0.0000 N   0  0  0  0  0  0  0  0  0
    5.5609    1.9870    0.0000 C   0  0  0  0  0  0  0  0  0
    4.7763    2.2420    0.0000 O   0  0  0  0  0  0  0  0  0
    5.3310    0.5350    0.0000 C   0  0  0  0  0  0  0  0  0
    5.6665   -0.2187    0.0000 C   0  0  0  0  0  0  0  0  0
    5.1816   -0.8861    0.0000 C   0  0  0  0  0  0  0  0  0
    5.5172   -1.6398    0.0000 O   0  0  0  0  0  0  0  0  0
    5.0322   -2.3072    0.0000 C   0  0  0  0  0  0  0  0  0
    5.3678   -3.0609    0.0000 C   0  0  0  0  0  0  0  0  0
    4.8829   -3.7284    0.0000 N   0  0  0  0  0  0  0  0  0
    5.2184   -4.4820    0.0000 C   0  0  0  0  0  0  0  0  0
    4.7335   -5.1495    0.0000 C   0  0  0  0  0  0  0  0  0
    3.9130   -5.0632    0.0000 C   0  0  0  0  0  0  0  0  0
    3.5775   -4.3096    0.0000 C   0  0  0  0  0  0  0  0  0
    4.0624   -3.6421    0.0000 C   0  0  0  0  0  0  0  0  0
    3.4281   -5.7307    0.0000 C   0  0  0  0  0  0  0  0  0
    4.3611   -0.7999    0.0000 C   0  0  0  0  0  0  0  0  0
    3.8762   -1.4673    0.0000 O   0  0  0  0  0  0  0  0  0
    3.0557   -1.3811    0.0000 C   0  0  0  0  0  0  0  0  0
    4.0256   -0.0462    0.0000 C   0  0  0  0  0  0  0  0  0
    4.5105    0.6212    0.0000 C   0  0  0  0  0  0  0  0  0
  1  2  1  0  0  0  0
  2  3  4  0  0  0  0
  2  7  4  0  0  0  0
  3  4  4  0  0  0  0
  4  5  4  0  0  0  0
  5  6  4  0  0  0  0
  5  8  1  0  0  0  0
  6  7  4  0  0  0  0
  8  9  2  0  0  0  0
  8 12  1  0  0  0  0
  9 10  1  0  0  0  0
 10 11  1  0  0  0  0
 11 12  1  0  0  0  0
 11 14  1  0  0  0  0
 12 13  2  0  0  0  0
 14 15  4  0  0  0  0
 14 31  4  0  0  0  0
 15 16  4  0  0  0  0
 16 17  1  0  0  0  0
 16 27  4  0  0  0  0
 17 18  1  0  0  0  0
 18 19  1  0  0  0  0
 19 20  1  0  0  0  0
 20 21  1  0  0  0  0
 20 25  1  0  0  0  0
 21 22  1  0  0  0  0
 22 23  1  0  0  0  0
 23 24  1  0  0  0  0
 23 26  1  0  0  0  0
 24 25  1  0  0  0  0
 27 28  1  0  0  0  0
 27 30  4  0  0  0  0
 28 29  1  0  0  0  0
 30 31  4  0  0  0  0
M  END
>  <Name_Molregno>
354265

>  <5-HT2A>
6.6

>  <5-HT2C>
8.5

$$$$
354266
  Marvin  02231216192D 0   1.00000     0.00000     0

 31 34  0  0  0  0  0  0  0  0999 V2000
    2.7510   -0.3621    0.0000 O   0  0  0  0  0  0  0  0  0
    2.7510    0.4629    0.0000 C   0  0  0  0  0  0  0  0  0
    3.4655    0.8754    0.0000 C   0  0  0  0  0  0  0  0  0
    3.4655    1.7004    0.0000 N   0  0  0  0  0  0  0  0  0
    2.7510    2.1129    0.0000 C   0  0  0  0  0  0  0  0  0
    2.7510    2.9379    0.0000 C   0  0  0  0  0  0  0  0  0
    3.4655    3.3504    0.0000 C   0  0  0  0  0  0  0  0  0
    4.1800    2.9379    0.0000 C   0  0  0  0  0  0  0  0  0
    4.1800    2.1129    0.0000 C   0  0  0  0  0  0  0  0  0
    3.4655    4.1754    0.0000 C   0  0  0  0  0  0  0  0  0
    2.0366   -0.7746    0.0000 C   0  0  0  0  0  0  0  0  0
    2.0366   -1.5996    0.0000 C   0  0  0  0  0  0  0  0  0
    1.3221   -2.0121    0.0000 C   0  0  0  0  0  0  0  0  0
    1.3221   -2.8371    0.0000 N   0  0  0  0  0  0  0  0  0
    1.9895   -3.3220    0.0000 C   0  0  0  0  0  0  0  0  0
    1.7346   -4.1067    0.0000 C   0  0  0  0  0  0  0  0  0
    0.9096   -4.1067    0.0000 C   0  0  0  0  0  0  0  0  0
    0.4247   -4.7741    0.0000 C   0  0  0  0  0  0  0  0  0
    0.7602   -5.5278    0.0000 C   0  0  0  0  0  0  0  0  0
    0.2753   -6.1952    0.0000 C   0  0  0  0  0  0  0  0  0
   -0.5452   -6.1090    0.0000 C   0  0  0  0  0  0  0  0  0
   -0.8807   -5.3553    0.0000 C   0  0  0  0  0  0  0  0  0
   -0.3958   -4.6879    0.0000 C   0  0  0  0  0  0  0  0  0
   -1.0301   -6.7764    0.0000 C   0  0  0  0  0  0  0  0  0
    0.6547   -3.3220    0.0000 C   0  0  0  0  0  0  0  0  0
   -0.1300   -3.0671    0.0000 O   0  0  0  0  0  0  0  0  0
    0.6076   -1.5996    0.0000 C   0  0  0  0  0  0  0  0  0
    0.6076   -0.7746    0.0000 C   0  0  0  0  0  0  0  0  0
    1.3221   -0.3621    0.0000 C   0  0  0  0  0  0  0  0  0
    1.3221    0.4629    0.0000 O   0  0  0  0  0  0  0  0  0
    0.6076    0.8754    0.0000 C   0  0  0  0  0  0  0  0  0
  1  2  1  0  0  0  0
  1 11  1  0  0  0  0
  2  3  1  0  0  0  0
  3  4  1  0  0  0  0
  4  5  1  0  0  0  0
  4  9  1  0  0  0  0
  5  6  1  0  0  0  0
  6  7  1  0  0  0  0
  7  8  1  0  0  0  0
  7 10  1  0  0  0  0
  8  9  1  0  0  0  0
 11 12  4  0  0  0  0
 11 29  4  0  0  0  0
 12 13  4  0  0  0  0
 13 14  1  0  0  0  0
 13 27  4  0  0  0  0
 14 15  1  0  0  0  0
 14 25  1  0  0  0  0
 15 16  1  0  0  0  0
 16 17  2  0  0  0  0
 17 18  1  0  0  0  0
 17 25  1  0  0  0  0
 18 19  4  0  0  0  0
 18 23  4  0  0  0  0
 19 20  4  0  0  0  0
 20 21  4  0  0  0  0
 21 22  4  0  0  0  0
 21 24  1  0  0  0  0
 22 23  4  0  0  0  0
 25 26  2  0  0  0  0
 27 28  4  0  0  0  0
 28 29  4  0  0  0  0
 29 30  1  0  0  0  0
 30 31  1  0  0  0  0
M  END
>  <Name_Molregno>
354266

>  <5-HT2A>
6.2

>  <5-HT2C>
8.8

$$$$
354274
  Marvin  02231216192D 0   1.00000     0.00000     0

 32 35  0  0  1  0  0  0  0  0999 V2000
    5.4211    1.5650    0.0000 Cl  0  0  0  0  0  0  0  0  0
    4.7066    1.1525    0.0000 C   0  0  0  0  0  0  0  0  0
    4.7066    0.3275    0.0000 C   0  0  0  0  0  0  0  0  0
    3.9921   -0.0850    0.0000 C   0  0  0  0  0  0  0  0  0
    3.2776    0.3275    0.0000 C   0  0  0  0  0  0  0  0  0
    3.2776    1.1525    0.0000 C   0  0  0  0  0  0  0  0  0
    3.9921    1.5650    0.0000 C   0  0  0  0  0  0  0  0  0
    3.9921    2.3900    0.0000 Cl  0  0  0  0  0  0  0  0  0
    3.9921   -0.9100    0.0000 C   0  0  0  0  0  0  0  0  0
    4.6596   -1.3950    0.0000 C   0  0  0  0  0  0  0  0  0
    4.4046   -2.1796    0.0000 C   0  0  0  0  0  0  0  0  0
    3.5796   -2.1796    0.0000 N   0  0  0  0  0  0  0  0  0
    3.3247   -1.3950    0.0000 C   0  0  0  0  0  0  0  0  0
    2.5401   -1.1400    0.0000 O   0  0  0  0  0  0  0  0  0
    3.0947   -2.8470    0.0000 C   0  0  0  0  0  0  0  0  0
    3.4303   -3.6007    0.0000 C   0  0  0  0  0  0  0  0  0
    2.9453   -4.2681    0.0000 C   0  0  0  0  0  0  0  0  0
    3.2809   -5.0218    0.0000 O   0  0  0  0  0  0  0  0  0
    2.7960   -5.6893    0.0000 C   0  0  0  0  0  0  0  0  0
    3.1315   -6.4429    0.0000 C   0  0  0  0  0  0  0  0  0
    2.6466   -7.1104    0.0000 N   0  0  0  0  0  0  0  0  0
    2.9822   -7.8640    0.0000 C   0  0  0  0  0  0  0  0  0
    2.4972   -8.5315    0.0000 C   0  0  0  0  0  0  0  0  0
    1.6768   -8.4453    0.0000 C   0  0  0  0  0  0  0  0  0
    1.3412   -7.6916    0.0000 C   0  0  0  0  0  0  0  0  0
    1.8261   -7.0241    0.0000 C   0  0  0  0  0  0  0  0  0
    1.1918   -9.1127    0.0000 C   0  0  0  0  0  0  0  0  0
    2.1248   -4.1819    0.0000 C   0  0  0  0  0  0  0  0  0
    1.6399   -4.8493    0.0000 O   0  0  0  0  0  0  0  0  0
    0.8194   -4.7631    0.0000 C   0  0  0  0  0  0  0  0  0
    1.7893   -3.4282    0.0000 C   0  0  0  0  0  0  0  0  0
    2.2742   -2.7608    0.0000 C   0  0  0  0  0  0  0  0  0
  1  2  1  0  0  0  0
  2  3  4  0  0  0  0
  2  7  4  0  0  0  0
  3  4  4  0  0  0  0
  4  5  4  0  0  0  0
  4  9  1  0  0  0  0
  5  6  4  0  0  0  0
  6  7  4  0  0  0  0
  7  8  1  0  0  0  0
  9 10  1  0  0  0  0
  9 13  1  0  0  0  0
 10 11  1  0  0  0  0
 11 12  1  0  0  0  0
 12 13  1  0  0  0  0
 12 15  1  0  0  0  0
 13 14  2  0  0  0  0
 15 16  4  0  0  0  0
 15 32  4  0  0  0  0
 16 17  4  0  0  0  0
 17 18  1  0  0  0  0
 17 28  4  0  0  0  0
 18 19  1  0  0  0  0
 19 20  1  0  0  0  0
 20 21  1  0  0  0  0
 21 22  1  0  0  0  0
 21 26  1  0  0  0  0
 22 23  1  0  0  0  0
 23 24  1  0  0  0  0
 24 25  1  0  0  0  0
 24 27  1  0  0  0  0
 25 26  1  0  0  0  0
 28 29  1  0  0  0  0
 28 31  4  0  0  0  0
 29 30  1  0  0  0  0
 31 32  4  0  0  0  0
M  END
>  <Name_Molregno>
354274

>  <5-HT2A>
6.4

>  <5-HT2C>
7.9

$$$$
354275
  Marvin  02231216192D 0   1.00000     0.00000     0

 34 37  0  0  1  0  0  0  0  0999 V2000
    6.8670    3.0395    0.0000 Cl  0  0  0  0  0  0  0  0  0
    6.1525    2.6270    0.0000 C   0  0  0  0  0  0  0  0  0
    6.1525    1.8020    0.0000 C   0  0  0  0  0  0  0  0  0
    5.4380    1.3895    0.0000 C   0  0  0  0  0  0  0  0  0
    4.7236    1.8020    0.0000 C   0  0  0  0  0  0  0  0  0
    4.7236    2.6270    0.0000 C   0  0  0  0  0  0  0  0  0
    5.4380    3.0395    0.0000 C   0  0  0  0  0  0  0  0  0
    5.4380    3.8645    0.0000 Cl  0  0  0  0  0  0  0  0  0
    5.4380    0.5645    0.0000 C   0  0  0  0  0  0  0  0  0
    6.1055    0.0796    0.0000 C   0  0  0  0  0  0  0  0  0
    5.8505   -0.7051    0.0000 C   0  0  0  0  0  0  0  0  0
    5.0255   -0.7051    0.0000 N   0  0  0  0  0  0  0  0  0
    4.7706    0.0796    0.0000 C   0  0  0  0  0  0  0  0  0
    3.9860    0.3345    0.0000 O   0  0  0  0  0  0  0  0  0
    4.5406   -1.3725    0.0000 C   0  0  0  0  0  0  0  0  0
    4.8762   -2.1262    0.0000 C   0  0  0  0  0  0  0  0  0
    4.3913   -2.7936    0.0000 C   0  0  0  0  0  0  0  0  0
    4.7268   -3.5473    0.0000 O   0  0  0  0  0  0  0  0  0
    4.2419   -4.2147    0.0000 C   0  0  0  0  0  0  0  0  0
    4.5775   -4.9684    0.0000 C   0  0  0  0  0  0  0  0  0
    4.0925   -5.6358    0.0000 N   0  0  0  0  0  0  0  0  0
    4.4281   -6.3895    0.0000 C   0  0  0  0  0  0  0  0  0
    3.9432   -7.0569    0.0000 C   0  0  0  0  0  0  0  0  0
    3.1227   -6.9707    0.0000 C   0  0  0  0  0  0  0  0  0
    2.7871   -6.2170    0.0000 C   0  0  0  0  0  0  0  0  0
    3.2721   -5.5496    0.0000 C   0  0  0  0  0  0  0  0  0
    3.5708   -2.7074    0.0000 C   0  0  0  0  0  0  0  0  0
    3.0859   -3.3748    0.0000 O   0  0  0  0  0  0  0  0  0
    2.2654   -3.2886    0.0000 C   0  0  0  0  0  0  0  0  0
    2.3516   -2.4681    0.0000 F   0  0  0  0  0  0  0  0  0
    2.1791   -4.1091    0.0000 F   0  0  0  0  0  0  0  0  0
    1.4449   -3.2023    0.0000 F   0  0  0  0  0  0  0  0  0
    3.2352   -1.9537    0.0000 C   0  0  0  0  0  0  0  0  0
    3.7201   -1.2863    0.0000 C   0  0  0  0  0  0  0  0  0
  1  2  1  0  0  0  0
  2  3  4  0  0  0  0
  2  7  4  0  0  0  0
  3  4  4  0  0  0  0
  4  5  4  0  0  0  0
  4  9  1  0  0  0  0
  5  6  4  0  0  0  0
  6  7  4  0  0  0  0
  7  8  1  0  0  0  0
  9 10  1  0  0  0  0
  9 13  1  0  0  0  0
 10 11  1  0  0  0  0
 11 12  1  0  0  0  0
 12 13  1  0  0  0  0
 12 15  1  0  0  0  0
 13 14  2  0  0  0  0
 15 16  4  0  0  0  0
 15 34  4  0  0  0  0
 16 17  4  0  0  0  0
 17 18  1  0  0  0  0
 17 27  4  0  0  0  0
 18 19  1  0  0  0  0
 19 20  1  0  0  0  0
 20 21  1  0  0  0  0
 21 22  1  0  0  0  0
 21 26  1  0  0  0  0
 22 23  1  0  0  0  0
 23 24  1  0  0  0  0
 24 25  1  0  0  0  0
 25 26  1  0  0  0  0
 27 28  1  0  0  0  0
 27 33  4  0  0  0  0
 28 29  1  0  0  0  0
 29 30  1  0  0  0  0
 29 31  1  0  0  0  0
 29 32  1  0  0  0  0
 33 34  4  0  0  0  0
M  END
>  <Name_Molregno>
354275

>  <5-HT2A>
5.5

>  <5-HT2C>
6.1

$$$$
354304
  Marvin  02231216192D 0   1.00000     0.00000     0

 33 36  0  0  1  0  0  0  0  0999 V2000
    5.7004    1.4811    0.0000 Cl  0  0  0  0  0  0  0  0  0
    4.9859    1.0686    0.0000 C   0  0  0  0  0  0  0  0  0
    4.9859    0.2436    0.0000 C   0  0  0  0  0  0  0  0  0
    4.2715   -0.1689    0.0000 C   0  0  0  0  0  0  0  0  0
    3.5570    0.2436    0.0000 C   0  0  0  0  0  0  0  0  0
    3.5570    1.0686    0.0000 C   0  0  0  0  0  0  0  0  0
    4.2715    1.4811    0.0000 C   0  0  0  0  0  0  0  0  0
    4.2715    2.3061    0.0000 Cl  0  0  0  0  0  0  0  0  0
    4.2715   -0.9939    0.0000 C   0  0  0  0  0  0  0  0  0
    4.9389   -1.4789    0.0000 C   0  0  0  0  0  0  0  0  0
    4.6840   -2.2635    0.0000 C   0  0  0  0  0  0  0  0  0
    3.8590   -2.2635    0.0000 N   0  0  0  0  0  0  0  0  0
    3.6040   -1.4789    0.0000 C   0  0  0  0  0  0  0  0  0
    2.8194   -1.2239    0.0000 O   0  0  0  0  0  0  0  0  0
    3.3740   -2.9309    0.0000 C   0  0  0  0  0  0  0  0  0
    3.7096   -3.6846    0.0000 C   0  0  0  0  0  0  0  0  0
    3.2247   -4.3520    0.0000 C   0  0  0  0  0  0  0  0  0
    3.5602   -5.1057    0.0000 O   0  0  0  0  0  0  0  0  0
    3.0753   -5.7731    0.0000 C   0  0  0  0  0  0  0  0  0
    3.4109   -6.5268    0.0000 C   0  0  0  0  0  0  0  0  0
    2.9259   -7.1943    0.0000 N   0  0  0  0  0  0  0  0  0
    3.2615   -7.9479    0.0000 C   0  0  0  0  0  0  0  0  0
    2.7766   -8.6154    0.0000 C   0  0  0  0  0  0  0  0  0
    1.9561   -8.5291    0.0000 C   0  0  0  0  0  0  0  0  0
    1.6205   -7.7755    0.0000 C   0  0  0  0  0  0  0  0  0
    2.1055   -7.1080    0.0000 C   0  0  0  0  0  0  0  0  0
    2.4042   -4.2658    0.0000 C   0  0  0  0  0  0  0  0  0
    1.9193   -4.9332    0.0000 N   0  0  0  0  0  0  0  0  0
    1.0988   -4.8470    0.0000 C   0  0  0  0  0  0  0  0  0
    0.7632   -4.0933    0.0000 O   0  0  0  0  0  0  0  0  0
    0.6139   -5.5144    0.0000 C   0  0  0  0  0  0  0  0  0
    2.0686   -3.5121    0.0000 C   0  0  0  0  0  0  0  0  0
    2.5536   -2.8447    0.0000 C   0  0  0  0  0  0  0  0  0
  1  2  1  0  0  0  0
  2  3  4  0  0  0  0
  2  7  4  0  0  0  0
  3  4  4  0  0  0  0
  4  5  4  0  0  0  0
  4  9  1  0  0  0  0
  5  6  4  0  0  0  0
  6  7  4  0  0  0  0
  7  8  1  0  0  0  0
  9 10  1  0  0  0  0
  9 13  1  0  0  0  0
 10 11  1  0  0  0  0
 11 12  1  0  0  0  0
 12 13  1  0  0  0  0
 12 15  1  0  0  0  0
 13 14  2  0  0  0  0
 15 16  4  0  0  0  0
 15 33  4  0  0  0  0
 16 17  4  0  0  0  0
 17 18  1  0  0  0  0
 17 27  4  0  0  0  0
 18 19  1  0  0  0  0
 19 20  1  0  0  0  0
 20 21  1  0  0  0  0
 21 22  1  0  0  0  0
 21 26  1  0  0  0  0
 22 23  1  0  0  0  0
 23 24  1  0  0  0  0
 24 25  1  0  0  0  0
 25 26  1  0  0  0  0
 27 28  1  0  0  0  0
 27 32  4  0  0  0  0
 28 29  1  0  0  0  0
 29 30  2  0  0  0  0
 29 31  1  0  0  0  0
 32 33  4  0  0  0  0
M  END
>  <Name_Molregno>
354304

>  <5-HT2A>
5.5

>  <5-HT2C>
6.5

$$$$
354305
  Marvin  02231216192D 0   1.00000     0.00000     0

 30 33  0  0  1  0  0  0  0  0999 V2000
    5.3737    1.4190    0.0000 Cl  0  0  0  0  0  0  0  0  0
    4.6592    1.0065    0.0000 C   0  0  0  0  0  0  0  0  0
    4.6592    0.1815    0.0000 C   0  0  0  0  0  0  0  0  0
    3.9447   -0.2310    0.0000 C   0  0  0  0  0  0  0  0  0
    3.2302    0.1815    0.0000 C   0  0  0  0  0  0  0  0  0
    3.2302    1.0065    0.0000 C   0  0  0  0  0  0  0  0  0
    3.9447    1.4190    0.0000 C   0  0  0  0  0  0  0  0  0
    3.9447   -1.0560    0.0000 C   0  0  0  0  0  0  0  0  0
    4.6122   -1.5409    0.0000 C   0  0  0  0  0  0  0  0  0
    4.3572   -2.3256    0.0000 C   0  0  0  0  0  0  0  0  0
    3.5322   -2.3256    0.0000 N   0  0  0  0  0  0  0  0  0
    3.2773   -1.5409    0.0000 C   0  0  0  0  0  0  0  0  0
    2.4927   -1.2860    0.0000 O   0  0  0  0  0  0  0  0  0
    3.0473   -2.9930    0.0000 C   0  0  0  0  0  0  0  0  0
    3.3829   -3.7467    0.0000 C   0  0  0  0  0  0  0  0  0
    2.8979   -4.4141    0.0000 C   0  0  0  0  0  0  0  0  0
    3.2335   -5.1678    0.0000 O   0  0  0  0  0  0  0  0  0
    2.7486   -5.8352    0.0000 C   0  0  0  0  0  0  0  0  0
    3.0841   -6.5889    0.0000 C   0  0  0  0  0  0  0  0  0
    2.5992   -7.2563    0.0000 N   0  0  0  0  0  0  0  0  0
    2.9348   -8.0100    0.0000 C   0  0  0  0  0  0  0  0  0
    2.4498   -8.6775    0.0000 C   0  0  0  0  0  0  0  0  0
    1.6294   -8.5912    0.0000 C   0  0  0  0  0  0  0  0  0
    1.2938   -7.8375    0.0000 C   0  0  0  0  0  0  0  0  0
    1.7787   -7.1701    0.0000 C   0  0  0  0  0  0  0  0  0
    2.0775   -4.3279    0.0000 C   0  0  0  0  0  0  0  0  0
    1.5925   -4.9953    0.0000 O   0  0  0  0  0  0  0  0  0
    0.7720   -4.9091    0.0000 C   0  0  0  0  0  0  0  0  0
    1.7419   -3.5742    0.0000 C   0  0  0  0  0  0  0  0  0
    2.2268   -2.9068    0.0000 C   0  0  0  0  0  0  0  0  0
  1  2  1  0  0  0  0
  2  3  4  0  0  0  0
  2  7  4  0  0  0  0
  3  4  4  0  0  0  0
  4  5  4  0  0  0  0
  4  8  1  0  0  0  0
  5  6  4  0  0  0  0
  6  7  4  0  0  0  0
  8  9  1  0  0  0  0
  8 12  1  0  0  0  0
  9 10  1  0  0  0  0
 10 11  1  0  0  0  0
 11 12  1  0  0  0  0
 11 14  1  0  0  0  0
 12 13  2  0  0  0  0
 14 15  4  0  0  0  0
 14 30  4  0  0  0  0
 15 16  4  0  0  0  0
 16 17  1  0  0  0  0
 16 26  4  0  0  0  0
 17 18  1  0  0  0  0
 18 19  1  0  0  0  0
 19 20  1  0  0  0  0
 20 21  1  0  0  0  0
 20 25  1  0  0  0  0
 21 22  1  0  0  0  0
 22 23  1  0  0  0  0
 23 24  1  0  0  0  0
 24 25  1  0  0  0  0
 26 27  1  0  0  0  0
 26 29  4  0  0  0  0
 27 28  1  0  0  0  0
 29 30  4  0  0  0  0
M  END
>  <Name_Molregno>
354305

>  <5-HT2A>
6

>  <5-HT2C>
7.6

$$$$
354322
  Marvin  02231216192D 0   1.00000     0.00000     0

 34 38  0  0  0  0  0  0  0  0999 V2000
    7.1476    5.6649    0.0000 Cl  0  0  0  0  0  0  0  0  0
    6.4332    5.2524    0.0000 C   0  0  0  0  0  0  0  0  0
    6.4332    4.4274    0.0000 C   0  0  0  0  0  0  0  0  0
    5.7187    4.0149    0.0000 C   0  0  0  0  0  0  0  0  0
    5.0042    4.4274    0.0000 C   0  0  0  0  0  0  0  0  0
    5.0042    5.2524    0.0000 C   0  0  0  0  0  0  0  0  0
    5.7187    5.6649    0.0000 C   0  0  0  0  0  0  0  0  0
    5.7187    6.4899    0.0000 Cl  0  0  0  0  0  0  0  0  0
    5.7187    3.1899    0.0000 C   0  0  0  0  0  0  0  0  0
    6.3861    2.7050    0.0000 C   0  0  0  0  0  0  0  0  0
    6.1312    1.9203    0.0000 C   0  0  0  0  0  0  0  0  0
    5.3062    1.9203    0.0000 N   0  0  0  0  0  0  0  0  0
    5.0513    2.7050    0.0000 C   0  0  0  0  0  0  0  0  0
    4.2666    2.9599    0.0000 O   0  0  0  0  0  0  0  0  0
    4.8213    1.2529    0.0000 C   0  0  0  0  0  0  0  0  0
    5.1568    0.4992    0.0000 C   0  0  0  0  0  0  0  0  0
    4.6719   -0.1682    0.0000 C   0  0  0  0  0  0  0  0  0
    5.0075   -0.9219    0.0000 O   0  0  0  0  0  0  0  0  0
    4.5226   -1.5893    0.0000 C   0  0  0  0  0  0  0  0  0
    4.8581   -2.3430    0.0000 C   0  0  0  0  0  0  0  0  0
    4.3732   -3.0104    0.0000 N   0  0  0  0  0  0  0  0  0
    4.7087   -3.7641    0.0000 C   0  0  0  0  0  0  0  0  0
    4.2238   -4.4316    0.0000 C   0  0  0  0  0  0  0  0  0
    3.4033   -4.3453    0.0000 C   0  0  0  0  0  0  0  0  0
    3.0678   -3.5916    0.0000 C   0  0  0  0  0  0  0  0  0
    3.5527   -2.9242    0.0000 C   0  0  0  0  0  0  0  0  0
    3.8514   -0.0820    0.0000 C   0  0  0  0  0  0  0  0  0
    3.3665   -0.7494    0.0000 N   0  0  0  0  0  0  0  0  0
    3.6215   -1.5340    0.0000 C   0  0  0  0  0  0  0  0  0
    2.9540   -2.0190    0.0000 C   0  0  0  0  0  0  0  0  0
    2.2866   -1.5340    0.0000 C   0  0  0  0  0  0  0  0  0
    2.5415   -0.7494    0.0000 C   0  0  0  0  0  0  0  0  0
    3.5159    0.6717    0.0000 C   0  0  0  0  0  0  0  0  0
    4.0008    1.3391    0.0000 C   0  0  0  0  0  0  0  0  0
  1  2  1  0  0  0  0
  2  3  4  0  0  0  0
  2  7  4  0  0  0  0
  3  4  4  0  0  0  0
  4  5  4  0  0  0  0
  4  9  1  0  0  0  0
  5  6  4  0  0  0  0
  6  7  4  0  0  0  0
  7  8  1  0  0  0  0
  9 10  2  0  0  0  0
  9 13  1  0  0  0  0
 10 11  1  0  0  0  0
 11 12  1  0  0  0  0
 12 13  1  0  0  0  0
 12 15  1  0  0  0  0
 13 14  2  0  0  0  0
 15 16  4  0  0  0  0
 15 34  4  0  0  0  0
 16 17  4  0  0  0  0
 17 18  1  0  0  0  0
 17 27  4  0  0  0  0
 18 19  1  0  0  0  0
 19 20  1  0  0  0  0
 20 21  1  0  0  0  0
 21 22  1  0  0  0  0
 21 26  1  0  0  0  0
 22 23  1  0  0  0  0
 23 24  1  0  0  0  0
 24 25  1  0  0  0  0
 25 26  1  0  0  0  0
 27 28  1  0  0  0  0
 27 33  4  0  0  0  0
 28 29  1  0  0  0  0
 28 32  1  0  0  0  0
 29 30  1  0  0  0  0
 30 31  1  0  0  0  0
 31 32  1  0  0  0  0
 33 34  4  0  0  0  0
M  END
>  <Name_Molregno>
354322

>  <5-HT2A>
5.9

>  <5-HT2C>
6.7

$$$$
354334
  Marvin  02231216192D 0   1.00000     0.00000     0

 30 33  0  0  1  0  0  0  0  0999 V2000
    5.9765    6.5629    0.0000 F   0  0  0  0  0  0  0  0  0
    5.9765    5.7379    0.0000 C   0  0  0  0  0  0  0  0  0
    6.6909    5.3254    0.0000 C   0  0  0  0  0  0  0  0  0
    6.6909    4.5004    0.0000 C   0  0  0  0  0  0  0  0  0
    5.9765    4.0879    0.0000 C   0  0  0  0  0  0  0  0  0
    5.2620    4.5004    0.0000 C   0  0  0  0  0  0  0  0  0
    5.2620    5.3254    0.0000 C   0  0  0  0  0  0  0  0  0
    5.9765    3.2629    0.0000 C   0  0  0  0  0  0  0  0  0
    6.6439    2.7779    0.0000 C   0  0  0  0  0  0  0  0  0
    6.3890    1.9933    0.0000 C   0  0  0  0  0  0  0  0  0
    5.5640    1.9933    0.0000 N   0  0  0  0  0  0  0  0  0
    5.3090    2.7779    0.0000 C   0  0  0  0  0  0  0  0  0
    4.5244    3.0329    0.0000 O   0  0  0  0  0  0  0  0  0
    5.0791    1.3259    0.0000 C   0  0  0  0  0  0  0  0  0
    5.4146    0.5722    0.0000 C   0  0  0  0  0  0  0  0  0
    4.9297   -0.0952    0.0000 C   0  0  0  0  0  0  0  0  0
    5.2652   -0.8489    0.0000 O   0  0  0  0  0  0  0  0  0
    4.7803   -1.5164    0.0000 C   0  0  0  0  0  0  0  0  0
    5.1159   -2.2700    0.0000 C   0  0  0  0  0  0  0  0  0
    4.6310   -2.9375    0.0000 N   0  0  0  0  0  0  0  0  0
    4.9665   -3.6911    0.0000 C   0  0  0  0  0  0  0  0  0
    4.4816   -4.3586    0.0000 C   0  0  0  0  0  0  0  0  0
    3.6611   -4.2723    0.0000 C   0  0  0  0  0  0  0  0  0
    3.3256   -3.5187    0.0000 C   0  0  0  0  0  0  0  0  0
    3.8105   -2.8512    0.0000 C   0  0  0  0  0  0  0  0  0
    4.1092   -0.0090    0.0000 C   0  0  0  0  0  0  0  0  0
    3.6243   -0.6764    0.0000 O   0  0  0  0  0  0  0  0  0
    2.8038   -0.5902    0.0000 C   0  0  0  0  0  0  0  0  0
    3.7737    0.7447    0.0000 C   0  0  0  0  0  0  0  0  0
    4.2586    1.4121    0.0000 C   0  0  0  0  0  0  0  0  0
  1  2  1  0  0  0  0
  2  3  4  0  0  0  0
  2  7  4  0  0  0  0
  3  4  4  0  0  0  0
  4  5  4  0  0  0  0
  5  6  4  0  0  0  0
  5  8  1  0  0  0  0
  6  7  4  0  0  0  0
  8  9  1  0  0  0  0
  8 12  1  0  0  0  0
  9 10  1  0  0  0  0
 10 11  1  0  0  0  0
 11 12  1  0  0  0  0
 11 14  1  0  0  0  0
 12 13  2  0  0  0  0
 14 15  4  0  0  0  0
 14 30  4  0  0  0  0
 15 16  4  0  0  0  0
 16 17  1  0  0  0  0
 16 26  4  0  0  0  0
 17 18  1  0  0  0  0
 18 19  1  0  0  0  0
 19 20  1  0  0  0  0
 20 21  1  0  0  0  0
 20 25  1  0  0  0  0
 21 22  1  0  0  0  0
 22 23  1  0  0  0  0
 23 24  1  0  0  0  0
 24 25  1  0  0  0  0
 26 27  1  0  0  0  0
 26 29  4  0  0  0  0
 27 28  1  0  0  0  0
 29 30  4  0  0  0  0
M  END
>  <Name_Molregno>
354334

>  <5-HT2A>
5.6

>  <5-HT2C>
7

$$$$
354335
  Marvin  02231216192D 0   1.00000     0.00000     0

 30 33  0  0  1  0  0  0  0  0999 V2000
    7.1999    4.9494    0.0000 Cl  0  0  0  0  0  0  0  0  0
    6.4854    4.5369    0.0000 C   0  0  0  0  0  0  0  0  0
    6.4854    3.7119    0.0000 C   0  0  0  0  0  0  0  0  0
    5.7710    3.2994    0.0000 C   0  0  0  0  0  0  0  0  0
    5.0565    3.7119    0.0000 C   0  0  0  0  0  0  0  0  0
    5.0565    4.5369    0.0000 C   0  0  0  0  0  0  0  0  0
    5.7710    4.9494    0.0000 C   0  0  0  0  0  0  0  0  0
    5.7710    5.7744    0.0000 Cl  0  0  0  0  0  0  0  0  0
    5.7710    2.4744    0.0000 C   0  0  0  0  0  0  0  0  0
    6.4384    1.9895    0.0000 C   0  0  0  0  0  0  0  0  0
    6.1835    1.2049    0.0000 C   0  0  0  0  0  0  0  0  0
    5.3585    1.2049    0.0000 N   0  0  0  0  0  0  0  0  0
    5.1035    1.9895    0.0000 C   0  0  0  0  0  0  0  0  0
    4.3189    2.2444    0.0000 O   0  0  0  0  0  0  0  0  0
    4.8735    0.5374    0.0000 C   0  0  0  0  0  0  0  0  0
    5.2091   -0.2162    0.0000 C   0  0  0  0  0  0  0  0  0
    4.7242   -0.8837    0.0000 C   0  0  0  0  0  0  0  0  0
    5.0597   -1.6373    0.0000 O   0  0  0  0  0  0  0  0  0
    4.5748   -2.3048    0.0000 C   0  0  0  0  0  0  0  0  0
    4.9104   -3.0585    0.0000 C   0  0  0  0  0  0  0  0  0
    4.4254   -3.7259    0.0000 N   0  0  0  0  0  0  0  0  0
    4.7610   -4.4796    0.0000 C   0  0  0  0  0  0  0  0  0
    4.2761   -5.1470    0.0000 C   0  0  0  0  0  0  0  0  0
    3.4556   -5.0608    0.0000 C   0  0  0  0  0  0  0  0  0
    3.1200   -4.3071    0.0000 C   0  0  0  0  0  0  0  0  0
    3.6050   -3.6397    0.0000 C   0  0  0  0  0  0  0  0  0
    3.9037   -0.7974    0.0000 C   0  0  0  0  0  0  0  0  0
    3.5681   -0.0438    0.0000 C   0  0  0  0  0  0  0  0  0
    4.0531    0.6237    0.0000 C   0  0  0  0  0  0  0  0  0
    3.4188   -1.4649    0.0000 C   0  0  0  0  0  0  0  0  0
  1  2  1  0  0  0  0
  2  3  4  0  0  0  0
  2  7  4  0  0  0  0
  3  4  4  0  0  0  0
  4  5  4  0  0  0  0
  4  9  1  0  0  0  0
  5  6  4  0  0  0  0
  6  7  4  0  0  0  0
  7  8  1  0  0  0  0
  9 10  1  0  0  0  0
  9 13  1  0  0  0  0
 10 11  1  0  0  0  0
 11 12  1  0  0  0  0
 12 13  1  0  0  0  0
 12 15  1  0  0  0  0
 13 14  2  0  0  0  0
 15 16  4  0  0  0  0
 15 29  4  0  0  0  0
 16 17  4  0  0  0  0
 17 18  1  0  0  0  0
 17 27  4  0  0  0  0
 18 19  1  0  0  0  0
 19 20  1  0  0  0  0
 20 21  1  0  0  0  0
 21 22  1  0  0  0  0
 21 26  1  0  0  0  0
 22 23  1  0  0  0  0
 23 24  1  0  0  0  0
 24 25  1  0  0  0  0
 25 26  1  0  0  0  0
 27 28  4  0  0  0  0
 27 30  1  0  0  0  0
 28 29  4  0  0  0  0
M  END
>  <Name_Molregno>
354335

>  <5-HT2A>
5.8

>  <5-HT2C>
6.4

$$$$
354351
  Marvin  02231216192D 0   1.00000     0.00000     0

 30 33  0  0  0  0  0  0  0  0999 V2000
    5.3737    1.4190    0.0000 F   0  0  0  0  0  0  0  0  0
    4.6592    1.0065    0.0000 C   0  0  0  0  0  0  0  0  0
    4.6592    0.1815    0.0000 C   0  0  0  0  0  0  0  0  0
    3.9447   -0.2310    0.0000 C   0  0  0  0  0  0  0  0  0
    3.2302    0.1815    0.0000 C   0  0  0  0  0  0  0  0  0
    3.2302    1.0065    0.0000 C   0  0  0  0  0  0  0  0  0
    3.9447    1.4190    0.0000 C   0  0  0  0  0  0  0  0  0
    3.9447   -1.0560    0.0000 C   0  0  0  0  0  0  0  0  0
    4.6122   -1.5409    0.0000 C   0  0  0  0  0  0  0  0  0
    4.3572   -2.3256    0.0000 C   0  0  0  0  0  0  0  0  0
    3.5322   -2.3256    0.0000 N   0  0  0  0  0  0  0  0  0
    3.2773   -1.5409    0.0000 C   0  0  0  0  0  0  0  0  0
    2.4927   -1.2860    0.0000 O   0  0  0  0  0  0  0  0  0
    3.0473   -2.9930    0.0000 C   0  0  0  0  0  0  0  0  0
    3.3829   -3.7467    0.0000 C   0  0  0  0  0  0  0  0  0
    2.8979   -4.4141    0.0000 C   0  0  0  0  0  0  0  0  0
    3.2335   -5.1678    0.0000 O   0  0  0  0  0  0  0  0  0
    2.7486   -5.8352    0.0000 C   0  0  0  0  0  0  0  0  0
    3.0841   -6.5889    0.0000 C   0  0  0  0  0  0  0  0  0
    2.5992   -7.2563    0.0000 N   0  0  0  0  0  0  0  0  0
    2.9348   -8.0100    0.0000 C   0  0  0  0  0  0  0  0  0
    2.4498   -8.6775    0.0000 C   0  0  0  0  0  0  0  0  0
    1.6294   -8.5912    0.0000 C   0  0  0  0  0  0  0  0  0
    1.2938   -7.8375    0.0000 C   0  0  0  0  0  0  0  0  0
    1.7787   -7.1701    0.0000 C   0  0  0  0  0  0  0  0  0
    2.0775   -4.3279    0.0000 C   0  0  0  0  0  0  0  0  0
    1.5925   -4.9953    0.0000 O   0  0  0  0  0  0  0  0  0
    0.7720   -4.9091    0.0000 C   0  0  0  0  0  0  0  0  0
    1.7419   -3.5742    0.0000 C   0  0  0  0  0  0  0  0  0
    2.2268   -2.9068    0.0000 C   0  0  0  0  0  0  0  0  0
  1  2  1  0  0  0  0
  2  3  4  0  0  0  0
  2  7  4  0  0  0  0
  3  4  4  0  0  0  0
  4  5  4  0  0  0  0
  4  8  1  0  0  0  0
  5  6  4  0  0  0  0
  6  7  4  0  0  0  0
  8  9  2  0  0  0  0
  8 12  1  0  0  0  0
  9 10  1  0  0  0  0
 10 11  1  0  0  0  0
 11 12  1  0  0  0  0
 11 14  1  0  0  0  0
 12 13  2  0  0  0  0
 14 15  4  0  0  0  0
 14 30  4  0  0  0  0
 15 16  4  0  0  0  0
 16 17  1  0  0  0  0
 16 26  4  0  0  0  0
 17 18  1  0  0  0  0
 18 19  1  0  0  0  0
 19 20  1  0  0  0  0
 20 21  1  0  0  0  0
 20 25  1  0  0  0  0
 21 22  1  0  0  0  0
 22 23  1  0  0  0  0
 23 24  1  0  0  0  0
 24 25  1  0  0  0  0
 26 27  1  0  0  0  0
 26 29  4  0  0  0  0
 27 28  1  0  0  0  0
 29 30  4  0  0  0  0
M  END
>  <Name_Molregno>
354351

>  <5-HT2A>
6.2

>  <5-HT2C>
9.1

$$$$
354352
  Marvin  02231216192D 0   1.00000     0.00000     0

 33 36  0  0  0  0  0  0  0  0999 V2000
    7.1569    2.8273    0.0000 F   0  0  0  0  0  0  0  0  0
    6.4424    2.4148    0.0000 C   0  0  0  0  0  0  0  0  0
    6.0299    3.1293    0.0000 F   0  0  0  0  0  0  0  0  0
    6.8549    1.7003    0.0000 F   0  0  0  0  0  0  0  0  0
    5.7280    2.0023    0.0000 C   0  0  0  0  0  0  0  0  0
    5.7280    1.1773    0.0000 C   0  0  0  0  0  0  0  0  0
    5.0135    0.7648    0.0000 C   0  0  0  0  0  0  0  0  0
    4.2990    1.1773    0.0000 C   0  0  0  0  0  0  0  0  0
    4.2990    2.0023    0.0000 C   0  0  0  0  0  0  0  0  0
    5.0135    2.4148    0.0000 C   0  0  0  0  0  0  0  0  0
    5.0135   -0.0602    0.0000 C   0  0  0  0  0  0  0  0  0
    5.6809   -0.5451    0.0000 C   0  0  0  0  0  0  0  0  0
    5.4260   -1.3298    0.0000 C   0  0  0  0  0  0  0  0  0
    4.6010   -1.3298    0.0000 N   0  0  0  0  0  0  0  0  0
    4.3461   -0.5451    0.0000 C   0  0  0  0  0  0  0  0  0
    3.5614   -0.2902    0.0000 O   0  0  0  0  0  0  0  0  0
    4.1161   -1.9972    0.0000 C   0  0  0  0  0  0  0  0  0
    4.4516   -2.7509    0.0000 C   0  0  0  0  0  0  0  0  0
    3.9667   -3.4183    0.0000 C   0  0  0  0  0  0  0  0  0
    4.3023   -4.1720    0.0000 O   0  0  0  0  0  0  0  0  0
    3.8173   -4.8394    0.0000 C   0  0  0  0  0  0  0  0  0
    4.1529   -5.5931    0.0000 C   0  0  0  0  0  0  0  0  0
    3.6680   -6.2605    0.0000 N   0  0  0  0  0  0  0  0  0
    4.0035   -7.0142    0.0000 C   0  0  0  0  0  0  0  0  0
    3.5186   -7.6816    0.0000 C   0  0  0  0  0  0  0  0  0
    2.6981   -7.5954    0.0000 C   0  0  0  0  0  0  0  0  0
    2.3626   -6.8417    0.0000 C   0  0  0  0  0  0  0  0  0
    2.8475   -6.1743    0.0000 C   0  0  0  0  0  0  0  0  0
    3.1462   -3.3321    0.0000 C   0  0  0  0  0  0  0  0  0
    2.6613   -3.9995    0.0000 O   0  0  0  0  0  0  0  0  0
    1.8408   -3.9133    0.0000 C   0  0  0  0  0  0  0  0  0
    2.8107   -2.5784    0.0000 C   0  0  0  0  0  0  0  0  0
    3.2956   -1.9110    0.0000 C   0  0  0  0  0  0  0  0  0
  1  2  1  0  0  0  0
  2  3  1  0  0  0  0
  2  4  1  0  0  0  0
  2  5  1  0  0  0  0
  5  6  4  0  0  0  0
  5 10  4  0  0  0  0
  6  7  4  0  0  0  0
  7  8  4  0  0  0  0
  7 11  1  0  0  0  0
  8  9  4  0  0  0  0
  9 10  4  0  0  0  0
 11 12  2  0  0  0  0
 11 15  1  0  0  0  0
 12 13  1  0  0  0  0
 13 14  1  0  0  0  0
 14 15  1  0  0  0  0
 14 17  1  0  0  0  0
 15 16  2  0  0  0  0
 17 18  4  0  0  0  0
 17 33  4  0  0  0  0
 18 19  4  0  0  0  0
 19 20  1  0  0  0  0
 19 29  4  0  0  0  0
 20 21  1  0  0  0  0
 21 22  1  0  0  0  0
 22 23  1  0  0  0  0
 23 24  1  0  0  0  0
 23 28  1  0  0  0  0
 24 25  1  0  0  0  0
 25 26  1  0  0  0  0
 26 27  1  0  0  0  0
 27 28  1  0  0  0  0
 29 30  1  0  0  0  0
 29 32  4  0  0  0  0
 30 31  1  0  0  0  0
 32 33  4  0  0  0  0
M  END
>  <Name_Molregno>
354352

>  <5-HT2A>
6.1

>  <5-HT2C>
8.3

$$$$
354353
  Marvin  02231216192D 0   1.00000     0.00000     0

 30 33  0  0  0  0  0  0  0  0999 V2000
    2.9666   -0.0988    0.0000 O   0  0  0  0  0  0  0  0  0
    2.9666    0.7262    0.0000 C   0  0  0  0  0  0  0  0  0
    3.6810    1.1387    0.0000 C   0  0  0  0  0  0  0  0  0
    3.6810    1.9637    0.0000 N   0  0  0  0  0  0  0  0  0
    2.9666    2.3762    0.0000 C   0  0  0  0  0  0  0  0  0
    2.9666    3.2012    0.0000 C   0  0  0  0  0  0  0  0  0
    3.6810    3.6137    0.0000 C   0  0  0  0  0  0  0  0  0
    4.3955    3.2012    0.0000 C   0  0  0  0  0  0  0  0  0
    4.3955    2.3762    0.0000 C   0  0  0  0  0  0  0  0  0
    2.2521   -0.5113    0.0000 C   0  0  0  0  0  0  0  0  0
    2.2521   -1.3363    0.0000 C   0  0  0  0  0  0  0  0  0
    1.5376   -1.7488    0.0000 C   0  0  0  0  0  0  0  0  0
    1.5376   -2.5738    0.0000 N   0  0  0  0  0  0  0  0  0
    2.2051   -3.0587    0.0000 C   0  0  0  0  0  0  0  0  0
    1.9501   -3.8433    0.0000 C   0  0  0  0  0  0  0  0  0
    1.1251   -3.8433    0.0000 C   0  0  0  0  0  0  0  0  0
    0.6402   -4.5108    0.0000 C   0  0  0  0  0  0  0  0  0
    0.9758   -5.2645    0.0000 C   0  0  0  0  0  0  0  0  0
    0.4908   -5.9319    0.0000 C   0  0  0  0  0  0  0  0  0
   -0.3296   -5.8457    0.0000 C   0  0  0  0  0  0  0  0  0
   -0.6652   -5.0920    0.0000 C   0  0  0  0  0  0  0  0  0
   -0.1803   -4.4245    0.0000 C   0  0  0  0  0  0  0  0  0
   -0.8146   -6.5131    0.0000 C   0  0  0  0  0  0  0  0  0
    0.8702   -3.0587    0.0000 C   0  0  0  0  0  0  0  0  0
    0.0856   -2.8038    0.0000 O   0  0  0  0  0  0  0  0  0
    0.8232   -1.3363    0.0000 C   0  0  0  0  0  0  0  0  0
    0.8232   -0.5113    0.0000 C   0  0  0  0  0  0  0  0  0
    1.5376   -0.0988    0.0000 C   0  0  0  0  0  0  0  0  0
    1.5376    0.7262    0.0000 O   0  0  0  0  0  0  0  0  0
    0.8232    1.1387    0.0000 C   0  0  0  0  0  0  0  0  0
  1  2  1  0  0  0  0
  1 10  1  0  0  0  0
  2  3  1  0  0  0  0
  3  4  1  0  0  0  0
  4  5  1  0  0  0  0
  4  9  1  0  0  0  0
  5  6  1  0  0  0  0
  6  7  1  0  0  0  0
  7  8  1  0  0  0  0
  8  9  1  0  0  0  0
 10 11  4  0  0  0  0
 10 28  4  0  0  0  0
 11 12  4  0  0  0  0
 12 13  1  0  0  0  0
 12 26  4  0  0  0  0
 13 14  1  0  0  0  0
 13 24  1  0  0  0  0
 14 15  1  0  0  0  0
 15 16  2  0  0  0  0
 16 17  1  0  0  0  0
 16 24  1  0  0  0  0
 17 18  4  0  0  0  0
 17 22  4  0  0  0  0
 18 19  4  0  0  0  0
 19 20  4  0  0  0  0
 20 21  4  0  0  0  0
 20 23  1  0  0  0  0
 21 22  4  0  0  0  0
 24 25  2  0  0  0  0
 26 27  4  0  0  0  0
 27 28  4  0  0  0  0
 28 29  1  0  0  0  0
 29 30  1  0  0  0  0
M  END
>  <Name_Molregno>
354353

>  <5-HT2A>
6

>  <5-HT2C>
9.5

$$$$
354354
  Marvin  02231216192D 0   1.00000     0.00000     0

 30 33  0  0  0  0  0  0  0  0999 V2000
    5.9765    6.5629    0.0000 Br  0  0  0  0  0  0  0  0  0
    5.9765    5.7379    0.0000 C   0  0  0  0  0  0  0  0  0
    6.6909    5.3254    0.0000 C   0  0  0  0  0  0  0  0  0
    6.6909    4.5004    0.0000 C   0  0  0  0  0  0  0  0  0
    5.9765    4.0879    0.0000 C   0  0  0  0  0  0  0  0  0
    5.2620    4.5004    0.0000 C   0  0  0  0  0  0  0  0  0
    5.2620    5.3254    0.0000 C   0  0  0  0  0  0  0  0  0
    5.9765    3.2629    0.0000 C   0  0  0  0  0  0  0  0  0
    6.6439    2.7779    0.0000 C   0  0  0  0  0  0  0  0  0
    6.3890    1.9933    0.0000 C   0  0  0  0  0  0  0  0  0
    5.5640    1.9933    0.0000 N   0  0  0  0  0  0  0  0  0
    5.3090    2.7779    0.0000 C   0  0  0  0  0  0  0  0  0
    4.5244    3.0329    0.0000 O   0  0  0  0  0  0  0  0  0
    5.0791    1.3259    0.0000 C   0  0  0  0  0  0  0  0  0
    5.4146    0.5722    0.0000 C   0  0  0  0  0  0  0  0  0
    4.9297   -0.0952    0.0000 C   0  0  0  0  0  0  0  0  0
    5.2652   -0.8489    0.0000 O   0  0  0  0  0  0  0  0  0
    4.7803   -1.5164    0.0000 C   0  0  0  0  0  0  0  0  0
    5.1159   -2.2700    0.0000 C   0  0  0  0  0  0  0  0  0
    4.6310   -2.9375    0.0000 N   0  0  0  0  0  0  0  0  0
    4.9665   -3.6911    0.0000 C   0  0  0  0  0  0  0  0  0
    4.4816   -4.3586    0.0000 C   0  0  0  0  0  0  0  0  0
    3.6611   -4.2723    0.0000 C   0  0  0  0  0  0  0  0  0
    3.3256   -3.5187    0.0000 C   0  0  0  0  0  0  0  0  0
    3.8105   -2.8512    0.0000 C   0  0  0  0  0  0  0  0  0
    4.1092   -0.0090    0.0000 C   0  0  0  0  0  0  0  0  0
    3.6243   -0.6764    0.0000 O   0  0  0  0  0  0  0  0  0
    2.8038   -0.5902    0.0000 C   0  0  0  0  0  0  0  0  0
    3.7737    0.7447    0.0000 C   0  0  0  0  0  0  0  0  0
    4.2586    1.4121    0.0000 C   0  0  0  0  0  0  0  0  0
  1  2  1  0  0  0  0
  2  3  4  0  0  0  0
  2  7  4  0  0  0  0
  3  4  4  0  0  0  0
  4  5  4  0  0  0  0
  5  6  4  0  0  0  0
  5  8  1  0  0  0  0
  6  7  4  0  0  0  0
  8  9  2  0  0  0  0
  8 12  1  0  0  0  0
  9 10  1  0  0  0  0
 10 11  1  0  0  0  0
 11 12  1  0  0  0  0
 11 14  1  0  0  0  0
 12 13  2  0  0  0  0
 14 15  4  0  0  0  0
 14 30  4  0  0  0  0
 15 16  4  0  0  0  0
 16 17  1  0  0  0  0
 16 26  4  0  0  0  0
 17 18  1  0  0  0  0
 18 19  1  0  0  0  0
 19 20  1  0  0  0  0
 20 21  1  0  0  0  0
 20 25  1  0  0  0  0
 21 22  1  0  0  0  0
 22 23  1  0  0  0  0
 23 24  1  0  0  0  0
 24 25  1  0  0  0  0
 26 27  1  0  0  0  0
 26 29  4  0  0  0  0
 27 28  1  0  0  0  0
 29 30  4  0  0  0  0
M  END
>  <Name_Molregno>
354354

>  <5-HT2A>
6.8

>  <5-HT2C>
8.9

$$$$
354380
  Marvin  02231216192D 0   1.00000     0.00000     0

 30 33  0  0  0  0  0  0  0  0999 V2000
    5.9765    6.5629    0.0000 F   0  0  0  0  0  0  0  0  0
    5.9765    5.7379    0.0000 C   0  0  0  0  0  0  0  0  0
    6.6909    5.3254    0.0000 C   0  0  0  0  0  0  0  0  0
    6.6909    4.5004    0.0000 C   0  0  0  0  0  0  0  0  0
    5.9765    4.0879    0.0000 C   0  0  0  0  0  0  0  0  0
    5.2620    4.5004    0.0000 C   0  0  0  0  0  0  0  0  0
    5.2620    5.3254    0.0000 C   0  0  0  0  0  0  0  0  0
    5.9765    3.2629    0.0000 C   0  0  0  0  0  0  0  0  0
    6.6439    2.7779    0.0000 C   0  0  0  0  0  0  0  0  0
    6.3890    1.9933    0.0000 C   0  0  0  0  0  0  0  0  0
    5.5640    1.9933    0.0000 N   0  0  0  0  0  0  0  0  0
    5.3090    2.7779    0.0000 C   0  0  0  0  0  0  0  0  0
    4.5244    3.0329    0.0000 O   0  0  0  0  0  0  0  0  0
    5.0791    1.3259    0.0000 C   0  0  0  0  0  0  0  0  0
    5.4146    0.5722    0.0000 C   0  0  0  0  0  0  0  0  0
    4.9297   -0.0952    0.0000 C   0  0  0  0  0  0  0  0  0
    5.2652   -0.8489    0.0000 O   0  0  0  0  0  0  0  0  0
    4.7803   -1.5164    0.0000 C   0  0  0  0  0  0  0  0  0
    5.1159   -2.2700    0.0000 C   0  0  0  0  0  0  0  0  0
    4.6310   -2.9375    0.0000 N   0  0  0  0  0  0  0  0  0
    4.9665   -3.6911    0.0000 C   0  0  0  0  0  0  0  0  0
    4.4816   -4.3586    0.0000 C   0  0  0  0  0  0  0  0  0
    3.6611   -4.2723    0.0000 C   0  0  0  0  0  0  0  0  0
    3.3256   -3.5187    0.0000 C   0  0  0  0  0  0  0  0  0
    3.8105   -2.8512    0.0000 C   0  0  0  0  0  0  0  0  0
    4.1092   -0.0090    0.0000 C   0  0  0  0  0  0  0  0  0
    3.6243   -0.6764    0.0000 O   0  0  0  0  0  0  0  0  0
    2.8038   -0.5902    0.0000 C   0  0  0  0  0  0  0  0  0
    3.7737    0.7447    0.0000 C   0  0  0  0  0  0  0  0  0
    4.2586    1.4121    0.0000 C   0  0  0  0  0  0  0  0  0
  1  2  1  0  0  0  0
  2  3  4  0  0  0  0
  2  7  4  0  0  0  0
  3  4  4  0  0  0  0
  4  5  4  0  0  0  0
  5  6  4  0  0  0  0
  5  8  1  0  0  0  0
  6  7  4  0  0  0  0
  8  9  2  0  0  0  0
  8 12  1  0  0  0  0
  9 10  1  0  0  0  0
 10 11  1  0  0  0  0
 11 12  1  0  0  0  0
 11 14  1  0  0  0  0
 12 13  2  0  0  0  0
 14 15  4  0  0  0  0
 14 30  4  0  0  0  0
 15 16  4  0  0  0  0
 16 17  1  0  0  0  0
 16 26  4  0  0  0  0
 17 18  1  0  0  0  0
 18 19  1  0  0  0  0
 19 20  1  0  0  0  0
 20 21  1  0  0  0  0
 20 25  1  0  0  0  0
 21 22  1  0  0  0  0
 22 23  1  0  0  0  0
 23 24  1  0  0  0  0
 24 25  1  0  0  0  0
 26 27  1  0  0  0  0
 26 29  4  0  0  0  0
 27 28  1  0  0  0  0
 29 30  4  0  0  0  0
M  END
>  <Name_Molregno>
354380

>  <5-HT2A>
6.4

>  <5-HT2C>
8.2

$$$$
354381
  Marvin  02231216192D 0   1.00000     0.00000     0

 33 36  0  0  0  0  0  0  0  0999 V2000
    6.2916    5.9949    0.0000 F   0  0  0  0  0  0  0  0  0
    6.2916    5.1699    0.0000 C   0  0  0  0  0  0  0  0  0
    5.4666    5.1699    0.0000 F   0  0  0  0  0  0  0  0  0
    7.1166    5.1699    0.0000 F   0  0  0  0  0  0  0  0  0
    6.2916    4.3449    0.0000 C   0  0  0  0  0  0  0  0  0
    7.0061    3.9324    0.0000 C   0  0  0  0  0  0  0  0  0
    7.0061    3.1074    0.0000 C   0  0  0  0  0  0  0  0  0
    6.2916    2.6949    0.0000 C   0  0  0  0  0  0  0  0  0
    5.5771    3.1074    0.0000 C   0  0  0  0  0  0  0  0  0
    5.5771    3.9324    0.0000 C   0  0  0  0  0  0  0  0  0
    6.2916    1.8699    0.0000 C   0  0  0  0  0  0  0  0  0
    6.9590    1.3850    0.0000 C   0  0  0  0  0  0  0  0  0
    6.7041    0.6003    0.0000 C   0  0  0  0  0  0  0  0  0
    5.8791    0.6003    0.0000 N   0  0  0  0  0  0  0  0  0
    5.6242    1.3850    0.0000 C   0  0  0  0  0  0  0  0  0
    4.8395    1.6399    0.0000 O   0  0  0  0  0  0  0  0  0
    5.3942   -0.0671    0.0000 C   0  0  0  0  0  0  0  0  0
    5.7297   -0.8208    0.0000 C   0  0  0  0  0  0  0  0  0
    5.2448   -1.4882    0.0000 C   0  0  0  0  0  0  0  0  0
    5.5804   -2.2419    0.0000 O   0  0  0  0  0  0  0  0  0
    5.0954   -2.9093    0.0000 C   0  0  0  0  0  0  0  0  0
    5.4310   -3.6630    0.0000 C   0  0  0  0  0  0  0  0  0
    4.9461   -4.3304    0.0000 N   0  0  0  0  0  0  0  0  0
    5.2816   -5.0841    0.0000 C   0  0  0  0  0  0  0  0  0
    4.7967   -5.7516    0.0000 C   0  0  0  0  0  0  0  0  0
    3.9762   -5.6653    0.0000 C   0  0  0  0  0  0  0  0  0
    3.6407   -4.9116    0.0000 C   0  0  0  0  0  0  0  0  0
    4.1256   -4.2442    0.0000 C   0  0  0  0  0  0  0  0  0
    4.4243   -1.4020    0.0000 C   0  0  0  0  0  0  0  0  0
    3.9394   -2.0694    0.0000 O   0  0  0  0  0  0  0  0  0
    3.1189   -1.9832    0.0000 C   0  0  0  0  0  0  0  0  0
    4.0888   -0.6483    0.0000 C   0  0  0  0  0  0  0  0  0
    4.5737    0.0191    0.0000 C   0  0  0  0  0  0  0  0  0
  1  2  1  0  0  0  0
  2  3  1  0  0  0  0
  2  4  1  0  0  0  0
  2  5  1  0  0  0  0
  5  6  4  0  0  0  0
  5 10  4  0  0  0  0
  6  7  4  0  0  0  0
  7  8  4  0  0  0  0
  8  9  4  0  0  0  0
  8 11  1  0  0  0  0
  9 10  4  0  0  0  0
 11 12  2  0  0  0  0
 11 15  1  0  0  0  0
 12 13  1  0  0  0  0
 13 14  1  0  0  0  0
 14 15  1  0  0  0  0
 14 17  1  0  0  0  0
 15 16  2  0  0  0  0
 17 18  4  0  0  0  0
 17 33  4  0  0  0  0
 18 19  4  0  0  0  0
 19 20  1  0  0  0  0
 19 29  4  0  0  0  0
 20 21  1  0  0  0  0
 21 22  1  0  0  0  0
 22 23  1  0  0  0  0
 23 24  1  0  0  0  0
 23 28  1  0  0  0  0
 24 25  1  0  0  0  0
 25 26  1  0  0  0  0
 26 27  1  0  0  0  0
 27 28  1  0  0  0  0
 29 30  1  0  0  0  0
 29 32  4  0  0  0  0
 30 31  1  0  0  0  0
 32 33  4  0  0  0  0
M  END
>  <Name_Molregno>
354381

>  <5-HT2A>
5.9

>  <5-HT2C>
7.9

$$$$
354382
  Marvin  02231216192D 0   1.00000     0.00000     0

 31 34  0  0  0  0  0  0  0  0999 V2000
    5.6055    1.6786    0.0000 Cl  0  0  0  0  0  0  0  0  0
    4.8910    1.2661    0.0000 C   0  0  0  0  0  0  0  0  0
    4.8910    0.4411    0.0000 C   0  0  0  0  0  0  0  0  0
    4.1766    0.0286    0.0000 C   0  0  0  0  0  0  0  0  0
    3.4621    0.4411    0.0000 C   0  0  0  0  0  0  0  0  0
    3.4621    1.2661    0.0000 C   0  0  0  0  0  0  0  0  0
    4.1766    1.6786    0.0000 C   0  0  0  0  0  0  0  0  0
    4.1766   -0.7964    0.0000 C   0  0  0  0  0  0  0  0  0
    4.8440   -1.2814    0.0000 C   0  0  0  0  0  0  0  0  0
    4.5891   -2.0660    0.0000 C   0  0  0  0  0  0  0  0  0
    3.7641   -2.0660    0.0000 N   0  0  0  0  0  0  0  0  0
    3.5091   -1.2814    0.0000 C   0  0  0  0  0  0  0  0  0
    2.7245   -1.0264    0.0000 O   0  0  0  0  0  0  0  0  0
    3.2791   -2.7334    0.0000 C   0  0  0  0  0  0  0  0  0
    3.6147   -3.4871    0.0000 C   0  0  0  0  0  0  0  0  0
    3.1298   -4.1545    0.0000 C   0  0  0  0  0  0  0  0  0
    3.4653   -4.9082    0.0000 O   0  0  0  0  0  0  0  0  0
    2.9804   -5.5757    0.0000 C   0  0  0  0  0  0  0  0  0
    3.3160   -6.3293    0.0000 C   0  0  0  0  0  0  0  0  0
    2.8310   -6.9968    0.0000 N   0  0  0  0  0  0  0  0  0
    3.1666   -7.7504    0.0000 C   0  0  0  0  0  0  0  0  0
    2.6817   -8.4179    0.0000 C   0  0  0  0  0  0  0  0  0
    1.8612   -8.3316    0.0000 C   0  0  0  0  0  0  0  0  0
    1.5256   -7.5780    0.0000 C   0  0  0  0  0  0  0  0  0
    2.0106   -6.9105    0.0000 C   0  0  0  0  0  0  0  0  0
    1.3763   -8.9991    0.0000 C   0  0  0  0  0  0  0  0  0
    2.3093   -4.0683    0.0000 C   0  0  0  0  0  0  0  0  0
    1.8244   -4.7357    0.0000 O   0  0  0  0  0  0  0  0  0
    1.0039   -4.6495    0.0000 C   0  0  0  0  0  0  0  0  0
    1.9737   -3.3146    0.0000 C   0  0  0  0  0  0  0  0  0
    2.4587   -2.6472    0.0000 C   0  0  0  0  0  0  0  0  0
  1  2  1  0  0  0  0
  2  3  4  0  0  0  0
  2  7  4  0  0  0  0
  3  4  4  0  0  0  0
  4  5  4  0  0  0  0
  4  8  1  0  0  0  0
  5  6  4  0  0  0  0
  6  7  4  0  0  0  0
  8  9  2  0  0  0  0
  8 12  1  0  0  0  0
  9 10  1  0  0  0  0
 10 11  1  0  0  0  0
 11 12  1  0  0  0  0
 11 14  1  0  0  0  0
 12 13  2  0  0  0  0
 14 15  4  0  0  0  0
 14 31  4  0  0  0  0
 15 16  4  0  0  0  0
 16 17  1  0  0  0  0
 16 27  4  0  0  0  0
 17 18  1  0  0  0  0
 18 19  1  0  0  0  0
 19 20  1  0  0  0  0
 20 21  1  0  0  0  0
 20 25  1  0  0  0  0
 21 22  1  0  0  0  0
 22 23  1  0  0  0  0
 23 24  1  0  0  0  0
 23 26  1  0  0  0  0
 24 25  1  0  0  0  0
 27 28  1  0  0  0  0
 27 30  4  0  0  0  0
 28 29  1  0  0  0  0
 30 31  4  0  0  0  0
M  END
>  <Name_Molregno>
354382

>  <5-HT2A>
6.1

>  <5-HT2C>
8.3

$$$$
354451
  Marvin  02231216192D 0   1.00000     0.00000     0

 34 37  0  0  0  0  0  0  0  0999 V2000
    6.8670    3.0395    0.0000 Cl  0  0  0  0  0  0  0  0  0
    6.1525    2.6270    0.0000 C   0  0  0  0  0  0  0  0  0
    6.1525    1.8020    0.0000 C   0  0  0  0  0  0  0  0  0
    5.4380    1.3895    0.0000 C   0  0  0  0  0  0  0  0  0
    4.7236    1.8020    0.0000 C   0  0  0  0  0  0  0  0  0
    4.7236    2.6270    0.0000 C   0  0  0  0  0  0  0  0  0
    5.4380    3.0395    0.0000 C   0  0  0  0  0  0  0  0  0
    5.4380    3.8645    0.0000 Cl  0  0  0  0  0  0  0  0  0
    5.4380    0.5645    0.0000 C   0  0  0  0  0  0  0  0  0
    6.1055    0.0796    0.0000 C   0  0  0  0  0  0  0  0  0
    5.8505   -0.7051    0.0000 C   0  0  0  0  0  0  0  0  0
    5.0255   -0.7051    0.0000 N   0  0  0  0  0  0  0  0  0
    4.7706    0.0796    0.0000 C   0  0  0  0  0  0  0  0  0
    3.9860    0.3345    0.0000 O   0  0  0  0  0  0  0  0  0
    4.5406   -1.3725    0.0000 C   0  0  0  0  0  0  0  0  0
    4.8762   -2.1262    0.0000 C   0  0  0  0  0  0  0  0  0
    4.3913   -2.7936    0.0000 C   0  0  0  0  0  0  0  0  0
    4.7268   -3.5473    0.0000 O   0  0  0  0  0  0  0  0  0
    4.2419   -4.2147    0.0000 C   0  0  0  0  0  0  0  0  0
    4.5775   -4.9684    0.0000 C   0  0  0  0  0  0  0  0  0
    4.0925   -5.6358    0.0000 N   0  0  0  0  0  0  0  0  0
    4.4281   -6.3895    0.0000 C   0  0  0  0  0  0  0  0  0
    3.9432   -7.0569    0.0000 C   0  0  0  0  0  0  0  0  0
    3.1227   -6.9707    0.0000 C   0  0  0  0  0  0  0  0  0
    2.7871   -6.2170    0.0000 C   0  0  0  0  0  0  0  0  0
    3.2721   -5.5496    0.0000 C   0  0  0  0  0  0  0  0  0
    3.5708   -2.7074    0.0000 C   0  0  0  0  0  0  0  0  0
    3.0859   -3.3748    0.0000 O   0  0  0  0  0  0  0  0  0
    2.2654   -3.2886    0.0000 C   0  0  0  0  0  0  0  0  0
    2.3516   -2.4681    0.0000 F   0  0  0  0  0  0  0  0  0
    2.1791   -4.1091    0.0000 F   0  0  0  0  0  0  0  0  0
    1.4449   -3.2023    0.0000 F   0  0  0  0  0  0  0  0  0
    3.2352   -1.9537    0.0000 C   0  0  0  0  0  0  0  0  0
    3.7201   -1.2863    0.0000 C   0  0  0  0  0  0  0  0  0
  1  2  1  0  0  0  0
  2  3  4  0  0  0  0
  2  7  4  0  0  0  0
  3  4  4  0  0  0  0
  4  5  4  0  0  0  0
  4  9  1  0  0  0  0
  5  6  4  0  0  0  0
  6  7  4  0  0  0  0
  7  8  1  0  0  0  0
  9 10  2  0  0  0  0
  9 13  1  0  0  0  0
 10 11  1  0  0  0  0
 11 12  1  0  0  0  0
 12 13  1  0  0  0  0
 12 15  1  0  0  0  0
 13 14  2  0  0  0  0
 15 16  4  0  0  0  0
 15 34  4  0  0  0  0
 16 17  4  0  0  0  0
 17 18  1  0  0  0  0
 17 27  4  0  0  0  0
 18 19  1  0  0  0  0
 19 20  1  0  0  0  0
 20 21  1  0  0  0  0
 21 22  1  0  0  0  0
 21 26  1  0  0  0  0
 22 23  1  0  0  0  0
 23 24  1  0  0  0  0
 24 25  1  0  0  0  0
 25 26  1  0  0  0  0
 27 28  1  0  0  0  0
 27 33  4  0  0  0  0
 28 29  1  0  0  0  0
 29 30  1  0  0  0  0
 29 31  1  0  0  0  0
 29 32  1  0  0  0  0
 33 34  4  0  0  0  0
M  END
>  <Name_Molregno>
354451

>  <5-HT2A>
5

>  <5-HT2C>
5.9

$$$$
357194
  Marvin  02231216192D 0   1.00000     0.00000     0

 36 40  0  0  0  0  0  0  0  0999 V2000
   -4.3023   -2.5888    0.0000 Cl  0  0  0  0  0  0  0  0  0
   -3.5139   -2.8320    0.0000 C   0  0  0  0  0  0  0  0  0
   -2.9092   -2.2708    0.0000 C   0  0  0  0  0  0  0  0  0
   -2.1208   -2.5140    0.0000 C   0  0  0  0  0  0  0  0  0
   -1.6064   -1.8690    0.0000 N   0  0  0  0  0  0  0  0  0
   -0.7814   -1.8690    0.0000 C   0  0  0  0  0  0  0  0  0
   -0.4235   -1.1257    0.0000 N   0  0  0  0  0  0  0  0  0
   -0.8882   -0.4440    0.0000 C   0  0  0  0  0  0  0  0  0
   -0.5303    0.2993    0.0000 C   0  0  0  0  0  0  0  0  0
    0.2924    0.3609    0.0000 N   0  0  0  0  0  0  0  0  0
    0.7572   -0.3207    0.0000 C   0  0  0  0  0  0  0  0  0
    0.3992   -1.0640    0.0000 C   0  0  0  0  0  0  0  0  0
    0.6504    1.1042    0.0000 C   0  0  0  0  0  0  0  0  0
   -0.2670   -2.5140    0.0000 C   0  0  0  0  0  0  0  0  0
   -0.4506   -3.3183    0.0000 C   0  0  0  0  0  0  0  0  0
   -1.1939   -3.6763    0.0000 N   0  0  0  0  0  0  0  0  0
   -1.1939   -4.5013    0.0000 N   0  0  0  0  0  0  0  0  0
   -0.4795   -4.9138    0.0000 C   0  0  0  0  0  0  0  0  0
    0.2350   -4.5013    0.0000 O   0  0  0  0  0  0  0  0  0
   -0.4795   -5.7388    0.0000 C   0  0  0  0  0  0  0  0  0
    0.2350   -6.1513    0.0000 C   0  0  0  0  0  0  0  0  0
    0.9495   -5.7388    0.0000 O   0  0  0  0  0  0  0  0  0
    0.9495   -4.9138    0.0000 C   0  0  0  0  0  0  0  0  0
    0.2350   -6.9763    0.0000 C   0  0  0  0  0  0  0  0  0
   -0.4795   -7.3888    0.0000 C   0  0  0  0  0  0  0  0  0
   -1.1939   -6.9763    0.0000 C   0  0  0  0  0  0  0  0  0
   -1.1939   -6.1513    0.0000 C   0  0  0  0  0  0  0  0  0
   -1.9084   -5.7388    0.0000 O   0  0  0  0  0  0  0  0  0
   -2.6229   -6.1513    0.0000 C   0  0  0  0  0  0  0  0  0
   -1.9372   -3.3183    0.0000 C   0  0  0  0  0  0  0  0  0
   -2.5420   -3.8795    0.0000 C   0  0  0  0  0  0  0  0  0
   -3.3303   -3.6363    0.0000 C   0  0  0  0  0  0  0  0  0
    0.1541   -3.8795    0.0000 C   0  0  0  0  0  0  0  0  0
    0.9425   -3.6363    0.0000 C   0  0  0  0  0  0  0  0  0
    1.1261   -2.8320    0.0000 C   0  0  0  0  0  0  0  0  0
    0.5213   -2.2708    0.0000 C   0  0  0  0  0  0  0  0  0
  1  2  1  0  0  0  0
  2  3  4  0  0  0  0
  2 32  4  0  0  0  0
  3  4  4  0  0  0  0
  4  5  1  0  0  0  0
  4 30  4  0  0  0  0
  5  6  2  0  0  0  0
  6  7  1  0  0  0  0
  6 14  1  0  0  0  0
  7  8  1  0  0  0  0
  7 12  1  0  0  0  0
  8  9  1  0  0  0  0
  9 10  1  0  0  0  0
 10 11  1  0  0  0  0
 10 13  1  0  0  0  0
 11 12  1  0  0  0  0
 14 15  4  0  0  0  0
 14 36  4  0  0  0  0
 15 16  1  0  0  0  0
 15 33  4  0  0  0  0
 16 17  1  0  0  0  0
 16 30  1  0  0  0  0
 17 18  1  0  0  0  0
 18 19  2  0  0  0  0
 18 20  1  0  0  0  0
 20 21  4  0  0  0  0
 20 27  4  0  0  0  0
 21 22  1  0  0  0  0
 21 24  4  0  0  0  0
 22 23  1  0  0  0  0
 24 25  4  0  0  0  0
 25 26  4  0  0  0  0
 26 27  4  0  0  0  0
 27 28  1  0  0  0  0
 28 29  1  0  0  0  0
 30 31  4  0  0  0  0
 31 32  4  0  0  0  0
 33 34  4  0  0  0  0
 34 35  4  0  0  0  0
 35 36  4  0  0  0  0
M  END
>  <Name_Molregno>
357194

>  <5-HT2A>
7.86

>  <Alpha-2A>
6.77

>  <DOPAMINE D1>
8.8

>  <DOPAMINE D2>
6.47

>  <DOPAMINE D4>
5.74

>  <DOPAMINE D5>
7.42

$$$$
357219
  Marvin  02231216192D 0   1.00000     0.00000     0

 33 37  0  0  0  0  0  0  0  0999 V2000
    0.3873    0.8347    0.0000 Cl  0  0  0  0  0  0  0  0  0
    1.1017    1.2472    0.0000 C   0  0  0  0  0  0  0  0  0
    1.1017    2.0722    0.0000 C   0  0  0  0  0  0  0  0  0
    1.8162    2.4847    0.0000 C   0  0  0  0  0  0  0  0  0
    2.5307    2.0722    0.0000 C   0  0  0  0  0  0  0  0  0
    2.5307    1.2472    0.0000 C   0  0  0  0  0  0  0  0  0
    1.8162    0.8347    0.0000 C   0  0  0  0  0  0  0  0  0
    1.8162    0.0097    0.0000 C   0  0  0  0  0  0  0  0  0
    1.1017   -0.4028    0.0000 O   0  0  0  0  0  0  0  0  0
    2.5307   -0.4028    0.0000 N   0  0  0  0  0  0  0  0  0
    2.5307   -1.2278    0.0000 N   0  0  0  0  0  0  0  0  0
    3.2740   -1.5858    0.0000 C   0  0  0  0  0  0  0  0  0
    3.4576   -2.3901    0.0000 C   0  0  0  0  0  0  0  0  0
    4.2459   -2.6333    0.0000 C   0  0  0  0  0  0  0  0  0
    4.8507   -2.0721    0.0000 C   0  0  0  0  0  0  0  0  0
    4.6671   -1.2678    0.0000 C   0  0  0  0  0  0  0  0  0
    3.8787   -1.0246    0.0000 C   0  0  0  0  0  0  0  0  0
    2.9432   -3.0351    0.0000 C   0  0  0  0  0  0  0  0  0
    2.1182   -3.0351    0.0000 N   0  0  0  0  0  0  0  0  0
    1.6038   -2.3901    0.0000 C   0  0  0  0  0  0  0  0  0
    0.8154   -2.6333    0.0000 C   0  0  0  0  0  0  0  0  0
    0.2107   -2.0721    0.0000 C   0  0  0  0  0  0  0  0  0
   -0.5777   -2.3153    0.0000 Cl  0  0  0  0  0  0  0  0  0
    0.3943   -1.2678    0.0000 C   0  0  0  0  0  0  0  0  0
    1.1826   -1.0246    0.0000 C   0  0  0  0  0  0  0  0  0
    1.7874   -1.5858    0.0000 C   0  0  0  0  0  0  0  0  0
    3.3011   -3.7784    0.0000 N   0  0  0  0  0  0  0  0  0
    4.1238   -3.8401    0.0000 C   0  0  0  0  0  0  0  0  0
    4.4818   -4.5833    0.0000 C   0  0  0  0  0  0  0  0  0
    4.0170   -5.2650    0.0000 N   0  0  0  0  0  0  0  0  0
    3.1943   -5.2033    0.0000 C   0  0  0  0  0  0  0  0  0
    2.8364   -4.4600    0.0000 C   0  0  0  0  0  0  0  0  0
    4.3750   -6.0083    0.0000 C   0  0  0  0  0  0  0  0  0
  1  2  1  0  0  0  0
  2  3  4  0  0  0  0
  2  7  4  0  0  0  0
  3  4  4  0  0  0  0
  4  5  4  0  0  0  0
  5  6  4  0  0  0  0
  6  7  4  0  0  0  0
  7  8  1  0  0  0  0
  8  9  2  0  0  0  0
  8 10  1  0  0  0  0
 10 11  1  0  0  0  0
 11 12  1  0  0  0  0
 11 26  1  0  0  0  0
 12 13  4  0  0  0  0
 12 17  4  0  0  0  0
 13 14  4  0  0  0  0
 13 18  1  0  0  0  0
 14 15  4  0  0  0  0
 15 16  4  0  0  0  0
 16 17  4  0  0  0  0
 18 19  2  0  0  0  0
 18 27  1  0  0  0  0
 19 20  1  0  0  0  0
 20 21  4  0  0  0  0
 20 26  4  0  0  0  0
 21 22  4  0  0  0  0
 22 23  1  0  0  0  0
 22 24  4  0  0  0  0
 24 25  4  0  0  0  0
 25 26  4  0  0  0  0
 27 28  1  0  0  0  0
 27 32  1  0  0  0  0
 28 29  1  0  0  0  0
 29 30  1  0  0  0  0
 30 31  1  0  0  0  0
 30 33  1  0  0  0  0
 31 32  1  0  0  0  0
M  END
>  <Name_Molregno>
357219

>  <5-HT2A>
9

>  <Alpha-2A>
6.34

>  <DOPAMINE D1>
8.39

>  <DOPAMINE D2>
6.74

>  <DOPAMINE D4>
6.06

>  <DOPAMINE D5>
7.14

$$$$
357242
  Marvin  02231216192D 0   1.00000     0.00000     0

 36 41  0  0  0  0  0  0  0  0999 V2000
   -4.2025   -2.5109    0.0000 Cl  0  0  0  0  0  0  0  0  0
   -3.4142   -2.7541    0.0000 C   0  0  0  0  0  0  0  0  0
   -2.8094   -2.1929    0.0000 C   0  0  0  0  0  0  0  0  0
   -2.0211   -2.4361    0.0000 C   0  0  0  0  0  0  0  0  0
   -1.5067   -1.7911    0.0000 N   0  0  0  0  0  0  0  0  0
   -0.6817   -1.7911    0.0000 C   0  0  0  0  0  0  0  0  0
   -0.3237   -1.0478    0.0000 N   0  0  0  0  0  0  0  0  0
   -0.7885   -0.3661    0.0000 C   0  0  0  0  0  0  0  0  0
   -0.4305    0.3772    0.0000 C   0  0  0  0  0  0  0  0  0
    0.3922    0.4388    0.0000 N   0  0  0  0  0  0  0  0  0
    0.8569   -0.2428    0.0000 C   0  0  0  0  0  0  0  0  0
    0.4990   -0.9861    0.0000 C   0  0  0  0  0  0  0  0  0
    0.7501    1.1821    0.0000 C   0  0  0  0  0  0  0  0  0
   -0.1673   -2.4361    0.0000 C   0  0  0  0  0  0  0  0  0
   -0.3509   -3.2404    0.0000 C   0  0  0  0  0  0  0  0  0
   -1.0942   -3.5984    0.0000 N   0  0  0  0  0  0  0  0  0
   -1.0942   -4.4234    0.0000 N   0  0  0  0  0  0  0  0  0
   -1.8087   -4.8359    0.0000 C   0  0  0  0  0  0  0  0  0
   -2.5231   -4.4234    0.0000 O   0  0  0  0  0  0  0  0  0
   -1.8087   -5.6609    0.0000 C   0  0  0  0  0  0  0  0  0
   -2.5231   -6.0734    0.0000 C   0  0  0  0  0  0  0  0  0
   -2.5231   -6.8984    0.0000 C   0  0  0  0  0  0  0  0  0
   -1.8087   -7.3109    0.0000 C   0  0  0  0  0  0  0  0  0
   -1.0942   -6.8984    0.0000 C   0  0  0  0  0  0  0  0  0
   -1.0942   -6.0734    0.0000 C   0  0  0  0  0  0  0  0  0
   -3.2376   -7.3109    0.0000 C   0  0  0  0  0  0  0  0  0
   -3.9521   -6.8984    0.0000 C   0  0  0  0  0  0  0  0  0
   -3.9521   -6.0734    0.0000 C   0  0  0  0  0  0  0  0  0
   -3.2376   -5.6609    0.0000 C   0  0  0  0  0  0  0  0  0
   -1.8375   -3.2404    0.0000 C   0  0  0  0  0  0  0  0  0
   -2.4422   -3.8016    0.0000 C   0  0  0  0  0  0  0  0  0
   -3.2306   -3.5584    0.0000 C   0  0  0  0  0  0  0  0  0
    0.2539   -3.8016    0.0000 C   0  0  0  0  0  0  0  0  0
    1.0422   -3.5584    0.0000 C   0  0  0  0  0  0  0  0  0
    1.2258   -2.7541    0.0000 C   0  0  0  0  0  0  0  0  0
    0.6210   -2.1929    0.0000 C   0  0  0  0  0  0  0  0  0
  1  2  1  0  0  0  0
  2  3  4  0  0  0  0
  2 32  4  0  0  0  0
  3  4  4  0  0  0  0
  4  5  1  0  0  0  0
  4 30  4  0  0  0  0
  5  6  2  0  0  0  0
  6  7  1  0  0  0  0
  6 14  1  0  0  0  0
  7  8  1  0  0  0  0
  7 12  1  0  0  0  0
  8  9  1  0  0  0  0
  9 10  1  0  0  0  0
 10 11  1  0  0  0  0
 10 13  1  0  0  0  0
 11 12  1  0  0  0  0
 14 15  4  0  0  0  0
 14 36  4  0  0  0  0
 15 16  1  0  0  0  0
 15 33  4  0  0  0  0
 16 17  1  0  0  0  0
 16 30  1  0  0  0  0
 17 18  1  0  0  0  0
 18 19  2  0  0  0  0
 18 20  1  0  0  0  0
 20 21  4  0  0  0  0
 20 25  4  0  0  0  0
 21 22  4  0  0  0  0
 21 29  4  0  0  0  0
 22 23  4  0  0  0  0
 22 26  4  0  0  0  0
 23 24  4  0  0  0  0
 24 25  4  0  0  0  0
 26 27  4  0  0  0  0
 27 28  4  0  0  0  0
 28 29  4  0  0  0  0
 30 31  4  0  0  0  0
 31 32  4  0  0  0  0
 33 34  4  0  0  0  0
 34 35  4  0  0  0  0
 35 36  4  0  0  0  0
M  END
>  <Name_Molregno>
357242

>  <5-HT2A>
9

>  <Alpha-2A>
6.05

>  <DOPAMINE D1>
8.42

>  <DOPAMINE D2>
6.34

>  <DOPAMINE D4>
6.01

>  <DOPAMINE D5>
6.98

$$$$
357390
  Marvin  02231216192D 0   1.00000     0.00000     0

 37 41  0  0  0  0  0  0  0  0999 V2000
   -4.7351   -2.6013    0.0000 Cl  0  0  0  0  0  0  0  0  0
   -3.9468   -2.8445    0.0000 C   0  0  0  0  0  0  0  0  0
   -3.3420   -2.2833    0.0000 C   0  0  0  0  0  0  0  0  0
   -2.5537   -2.5265    0.0000 C   0  0  0  0  0  0  0  0  0
   -2.0393   -1.8815    0.0000 N   0  0  0  0  0  0  0  0  0
   -1.2143   -1.8815    0.0000 C   0  0  0  0  0  0  0  0  0
   -0.8563   -1.1382    0.0000 N   0  0  0  0  0  0  0  0  0
   -1.3211   -0.4565    0.0000 C   0  0  0  0  0  0  0  0  0
   -0.9631    0.2868    0.0000 C   0  0  0  0  0  0  0  0  0
   -0.1404    0.3484    0.0000 N   0  0  0  0  0  0  0  0  0
    0.3243   -0.3332    0.0000 C   0  0  0  0  0  0  0  0  0
   -0.0336   -1.0765    0.0000 C   0  0  0  0  0  0  0  0  0
    0.2175    1.0917    0.0000 C   0  0  0  0  0  0  0  0  0
   -0.6999   -2.5265    0.0000 C   0  0  0  0  0  0  0  0  0
   -0.8835   -3.3308    0.0000 C   0  0  0  0  0  0  0  0  0
   -1.6268   -3.6888    0.0000 N   0  0  0  0  0  0  0  0  0
   -1.6268   -4.5138    0.0000 N   0  0  0  0  0  0  0  0  0
   -0.9123   -4.9263    0.0000 C   0  0  0  0  0  0  0  0  0
   -0.1978   -4.5138    0.0000 O   0  0  0  0  0  0  0  0  0
   -0.9123   -5.7513    0.0000 C   0  0  0  0  0  0  0  0  0
   -0.1978   -6.1638    0.0000 C   0  0  0  0  0  0  0  0  0
   -0.1978   -6.9888    0.0000 C   0  0  0  0  0  0  0  0  0
   -0.9123   -7.4013    0.0000 C   0  0  0  0  0  0  0  0  0
   -1.6268   -6.9888    0.0000 C   0  0  0  0  0  0  0  0  0
   -1.6268   -6.1638    0.0000 C   0  0  0  0  0  0  0  0  0
   -2.3412   -5.7513    0.0000 F   0  0  0  0  0  0  0  0  0
    0.5166   -5.7513    0.0000 C   0  0  0  0  0  0  0  0  0
    1.2311   -5.3388    0.0000 F   0  0  0  0  0  0  0  0  0
    0.9291   -6.4657    0.0000 F   0  0  0  0  0  0  0  0  0
    0.1041   -5.0368    0.0000 F   0  0  0  0  0  0  0  0  0
   -2.3701   -3.3308    0.0000 C   0  0  0  0  0  0  0  0  0
   -2.9748   -3.8919    0.0000 C   0  0  0  0  0  0  0  0  0
   -3.7632   -3.6488    0.0000 C   0  0  0  0  0  0  0  0  0
   -0.2787   -3.8919    0.0000 C   0  0  0  0  0  0  0  0  0
    0.5096   -3.6488    0.0000 C   0  0  0  0  0  0  0  0  0
    0.6932   -2.8445    0.0000 C   0  0  0  0  0  0  0  0  0
    0.0885   -2.2833    0.0000 C   0  0  0  0  0  0  0  0  0
  1  2  1  0  0  0  0
  2  3  4  0  0  0  0
  2 33  4  0  0  0  0
  3  4  4  0  0  0  0
  4  5  1  0  0  0  0
  4 31  4  0  0  0  0
  5  6  2  0  0  0  0
  6  7  1  0  0  0  0
  6 14  1  0  0  0  0
  7  8  1  0  0  0  0
  7 12  1  0  0  0  0
  8  9  1  0  0  0  0
  9 10  1  0  0  0  0
 10 11  1  0  0  0  0
 10 13  1  0  0  0  0
 11 12  1  0  0  0  0
 14 15  4  0  0  0  0
 14 37  4  0  0  0  0
 15 16  1  0  0  0  0
 15 34  4  0  0  0  0
 16 17  1  0  0  0  0
 16 31  1  0  0  0  0
 17 18  1  0  0  0  0
 18 19  2  0  0  0  0
 18 20  1  0  0  0  0
 20 21  4  0  0  0  0
 20 25  4  0  0  0  0
 21 22  4  0  0  0  0
 21 27  1  0  0  0  0
 22 23  4  0  0  0  0
 23 24  4  0  0  0  0
 24 25  4  0  0  0  0
 25 26  1  0  0  0  0
 27 28  1  0  0  0  0
 27 29  1  0  0  0  0
 27 30  1  0  0  0  0
 31 32  4  0  0  0  0
 32 33  4  0  0  0  0
 34 35  4  0  0  0  0
 35 36  4  0  0  0  0
 36 37  4  0  0  0  0
M  END
>  <Name_Molregno>
357390

>  <5-HT2A>
8.92

>  <Alpha-2A>
5.7

>  <DOPAMINE D1>
8.6

>  <DOPAMINE D2>
6.42

>  <DOPAMINE D4>
5.7

>  <DOPAMINE D5>
8.15

$$$$
357418
  Marvin  02231216192D 0   1.00000     0.00000     0

 34 38  0  0  0  0  0  0  0  0999 V2000
    0.2845    1.3449    0.0000 Cl  0  0  0  0  0  0  0  0  0
    0.9990    1.7574    0.0000 C   0  0  0  0  0  0  0  0  0
    0.9990    2.5824    0.0000 C   0  0  0  0  0  0  0  0  0
    1.7135    2.9949    0.0000 C   0  0  0  0  0  0  0  0  0
    2.4279    2.5824    0.0000 C   0  0  0  0  0  0  0  0  0
    2.4279    1.7574    0.0000 C   0  0  0  0  0  0  0  0  0
    3.1424    1.3449    0.0000 N   0  0  0  0  0  0  0  0  0
    1.7135    1.3449    0.0000 C   0  0  0  0  0  0  0  0  0
    1.7135    0.5199    0.0000 C   0  0  0  0  0  0  0  0  0
    0.9990    0.1074    0.0000 O   0  0  0  0  0  0  0  0  0
    2.4279    0.1074    0.0000 N   0  0  0  0  0  0  0  0  0
    2.4279   -0.7176    0.0000 N   0  0  0  0  0  0  0  0  0
    3.1712   -1.0755    0.0000 C   0  0  0  0  0  0  0  0  0
    3.3548   -1.8798    0.0000 C   0  0  0  0  0  0  0  0  0
    4.1432   -2.1230    0.0000 C   0  0  0  0  0  0  0  0  0
    4.7479   -1.5619    0.0000 C   0  0  0  0  0  0  0  0  0
    4.5644   -0.7576    0.0000 C   0  0  0  0  0  0  0  0  0
    3.7760   -0.5144    0.0000 C   0  0  0  0  0  0  0  0  0
    2.8404   -2.5248    0.0000 C   0  0  0  0  0  0  0  0  0
    2.0154   -2.5248    0.0000 N   0  0  0  0  0  0  0  0  0
    1.5011   -1.8798    0.0000 C   0  0  0  0  0  0  0  0  0
    0.7127   -2.1230    0.0000 C   0  0  0  0  0  0  0  0  0
    0.1080   -1.5619    0.0000 C   0  0  0  0  0  0  0  0  0
   -0.6804   -1.8050    0.0000 Cl  0  0  0  0  0  0  0  0  0
    0.2915   -0.7576    0.0000 C   0  0  0  0  0  0  0  0  0
    1.0799   -0.5144    0.0000 C   0  0  0  0  0  0  0  0  0
    1.6846   -1.0755    0.0000 C   0  0  0  0  0  0  0  0  0
    3.1984   -3.2681    0.0000 N   0  0  0  0  0  0  0  0  0
    4.0211   -3.3298    0.0000 C   0  0  0  0  0  0  0  0  0
    4.3791   -4.0731    0.0000 C   0  0  0  0  0  0  0  0  0
    3.9143   -4.7547    0.0000 N   0  0  0  0  0  0  0  0  0
    3.0916   -4.6931    0.0000 C   0  0  0  0  0  0  0  0  0
    2.7337   -3.9498    0.0000 C   0  0  0  0  0  0  0  0  0
    4.2723   -5.4980    0.0000 C   0  0  0  0  0  0  0  0  0
  1  2  1  0  0  0  0
  2  3  4  0  0  0  0
  2  8  4  0  0  0  0
  3  4  4  0  0  0  0
  4  5  4  0  0  0  0
  5  6  4  0  0  0  0
  6  7  1  0  0  0  0
  6  8  4  0  0  0  0
  8  9  1  0  0  0  0
  9 10  2  0  0  0  0
  9 11  1  0  0  0  0
 11 12  1  0  0  0  0
 12 13  1  0  0  0  0
 12 27  1  0  0  0  0
 13 14  4  0  0  0  0
 13 18  4  0  0  0  0
 14 15  4  0  0  0  0
 14 19  1  0  0  0  0
 15 16  4  0  0  0  0
 16 17  4  0  0  0  0
 17 18  4  0  0  0  0
 19 20  2  0  0  0  0
 19 28  1  0  0  0  0
 20 21  1  0  0  0  0
 21 22  4  0  0  0  0
 21 27  4  0  0  0  0
 22 23  4  0  0  0  0
 23 24  1  0  0  0  0
 23 25  4  0  0  0  0
 25 26  4  0  0  0  0
 26 27  4  0  0  0  0
 28 29  1  0  0  0  0
 28 33  1  0  0  0  0
 29 30  1  0  0  0  0
 30 31  1  0  0  0  0
 31 32  1  0  0  0  0
 31 34  1  0  0  0  0
 32 33  1  0  0  0  0
M  END
>  <Name_Molregno>
357418

>  <5-HT2A>
9.05

>  <Alpha-2A>
6.49

>  <DOPAMINE D1>
8.59

>  <DOPAMINE D2>
6.3

>  <DOPAMINE D4>
6.09

>  <DOPAMINE D5>
7.28

$$$$
357419
  Marvin  02231216192D 0   1.00000     0.00000     0

 34 38  0  0  0  0  0  0  0  0999 V2000
   -4.1474   -2.6924    0.0000 Cl  0  0  0  0  0  0  0  0  0
   -3.3590   -2.9355    0.0000 C   0  0  0  0  0  0  0  0  0
   -2.7543   -2.3744    0.0000 C   0  0  0  0  0  0  0  0  0
   -1.9659   -2.6176    0.0000 C   0  0  0  0  0  0  0  0  0
   -1.4515   -1.9726    0.0000 N   0  0  0  0  0  0  0  0  0
   -0.6265   -1.9726    0.0000 C   0  0  0  0  0  0  0  0  0
   -0.2686   -1.2293    0.0000 N   0  0  0  0  0  0  0  0  0
   -0.7333   -0.5476    0.0000 C   0  0  0  0  0  0  0  0  0
   -0.3754    0.1957    0.0000 C   0  0  0  0  0  0  0  0  0
    0.4473    0.2573    0.0000 N   0  0  0  0  0  0  0  0  0
    0.9121   -0.4243    0.0000 C   0  0  0  0  0  0  0  0  0
    0.5541   -1.1676    0.0000 C   0  0  0  0  0  0  0  0  0
    0.8053    1.0006    0.0000 C   0  0  0  0  0  0  0  0  0
   -0.1122   -2.6176    0.0000 C   0  0  0  0  0  0  0  0  0
   -0.2957   -3.4219    0.0000 C   0  0  0  0  0  0  0  0  0
   -1.0390   -3.7798    0.0000 N   0  0  0  0  0  0  0  0  0
   -1.0390   -4.6048    0.0000 N   0  0  0  0  0  0  0  0  0
   -0.3246   -5.0173    0.0000 C   0  0  0  0  0  0  0  0  0
    0.3899   -4.6048    0.0000 O   0  0  0  0  0  0  0  0  0
   -0.3246   -5.8423    0.0000 C   0  0  0  0  0  0  0  0  0
    0.3899   -6.2548    0.0000 C   0  0  0  0  0  0  0  0  0
    0.3899   -7.0798    0.0000 C   0  0  0  0  0  0  0  0  0
   -0.3246   -7.4923    0.0000 C   0  0  0  0  0  0  0  0  0
   -1.0390   -7.0798    0.0000 C   0  0  0  0  0  0  0  0  0
   -1.0390   -6.2548    0.0000 C   0  0  0  0  0  0  0  0  0
   -1.7535   -5.8423    0.0000 C   0  0  0  0  0  0  0  0  0
    1.1044   -5.8423    0.0000 C   0  0  0  0  0  0  0  0  0
   -1.7823   -3.4219    0.0000 C   0  0  0  0  0  0  0  0  0
   -2.3871   -3.9830    0.0000 C   0  0  0  0  0  0  0  0  0
   -3.1755   -3.7398    0.0000 C   0  0  0  0  0  0  0  0  0
    0.3090   -3.9830    0.0000 C   0  0  0  0  0  0  0  0  0
    1.0974   -3.7398    0.0000 C   0  0  0  0  0  0  0  0  0
    1.2810   -2.9355    0.0000 C   0  0  0  0  0  0  0  0  0
    0.6762   -2.3744    0.0000 C   0  0  0  0  0  0  0  0  0
  1  2  1  0  0  0  0
  2  3  4  0  0  0  0
  2 30  4  0  0  0  0
  3  4  4  0  0  0  0
  4  5  1  0  0  0  0
  4 28  4  0  0  0  0
  5  6  2  0  0  0  0
  6  7  1  0  0  0  0
  6 14  1  0  0  0  0
  7  8  1  0  0  0  0
  7 12  1  0  0  0  0
  8  9  1  0  0  0  0
  9 10  1  0  0  0  0
 10 11  1  0  0  0  0
 10 13  1  0  0  0  0
 11 12  1  0  0  0  0
 14 15  4  0  0  0  0
 14 34  4  0  0  0  0
 15 16  1  0  0  0  0
 15 31  4  0  0  0  0
 16 17  1  0  0  0  0
 16 28  1  0  0  0  0
 17 18  1  0  0  0  0
 18 19  2  0  0  0  0
 18 20  1  0  0  0  0
 20 21  4  0  0  0  0
 20 25  4  0  0  0  0
 21 22  4  0  0  0  0
 21 27  1  0  0  0  0
 22 23  4  0  0  0  0
 23 24  4  0  0  0  0
 24 25  4  0  0  0  0
 25 26  1  0  0  0  0
 28 29  4  0  0  0  0
 29 30  4  0  0  0  0
 31 32  4  0  0  0  0
 32 33  4  0  0  0  0
 33 34  4  0  0  0  0
M  END
>  <Name_Molregno>
357419

>  <5-HT2A>
8.66

>  <Alpha-2A>
6.1

>  <DOPAMINE D1>
8.52

>  <DOPAMINE D2>
6.54

>  <DOPAMINE D4>
5.73

>  <DOPAMINE D5>
7.51

$$$$
357447
  Marvin  02231216192D 0   1.00000     0.00000     0

 34 38  0  0  0  0  0  0  0  0999 V2000
   -4.1474   -2.6924    0.0000 Cl  0  0  0  0  0  0  0  0  0
   -3.3590   -2.9355    0.0000 C   0  0  0  0  0  0  0  0  0
   -2.7543   -2.3744    0.0000 C   0  0  0  0  0  0  0  0  0
   -1.9659   -2.6176    0.0000 C   0  0  0  0  0  0  0  0  0
   -1.4515   -1.9726    0.0000 N   0  0  0  0  0  0  0  0  0
   -0.6265   -1.9726    0.0000 C   0  0  0  0  0  0  0  0  0
   -0.2686   -1.2293    0.0000 N   0  0  0  0  0  0  0  0  0
   -0.7333   -0.5476    0.0000 C   0  0  0  0  0  0  0  0  0
   -0.3754    0.1957    0.0000 C   0  0  0  0  0  0  0  0  0
    0.4473    0.2573    0.0000 N   0  0  0  0  0  0  0  0  0
    0.9121   -0.4243    0.0000 C   0  0  0  0  0  0  0  0  0
    0.5541   -1.1676    0.0000 C   0  0  0  0  0  0  0  0  0
    0.8053    1.0006    0.0000 C   0  0  0  0  0  0  0  0  0
   -0.1122   -2.6176    0.0000 C   0  0  0  0  0  0  0  0  0
   -0.2957   -3.4219    0.0000 C   0  0  0  0  0  0  0  0  0
   -1.0390   -3.7798    0.0000 N   0  0  0  0  0  0  0  0  0
   -1.0390   -4.6048    0.0000 N   0  0  0  0  0  0  0  0  0
   -0.3246   -5.0173    0.0000 C   0  0  0  0  0  0  0  0  0
    0.3899   -4.6048    0.0000 O   0  0  0  0  0  0  0  0  0
   -0.3246   -5.8423    0.0000 C   0  0  0  0  0  0  0  0  0
    0.3899   -6.2548    0.0000 C   0  0  0  0  0  0  0  0  0
    0.3899   -7.0798    0.0000 C   0  0  0  0  0  0  0  0  0
   -0.3246   -7.4923    0.0000 C   0  0  0  0  0  0  0  0  0
   -1.0390   -7.0798    0.0000 C   0  0  0  0  0  0  0  0  0
   -1.0390   -6.2548    0.0000 C   0  0  0  0  0  0  0  0  0
   -1.7535   -5.8423    0.0000 N   0  0  0  0  0  0  0  0  0
    1.1044   -5.8423    0.0000 C   0  0  0  0  0  0  0  0  0
   -1.7823   -3.4219    0.0000 C   0  0  0  0  0  0  0  0  0
   -2.3871   -3.9830    0.0000 C   0  0  0  0  0  0  0  0  0
   -3.1755   -3.7398    0.0000 C   0  0  0  0  0  0  0  0  0
    0.3090   -3.9830    0.0000 C   0  0  0  0  0  0  0  0  0
    1.0974   -3.7398    0.0000 C   0  0  0  0  0  0  0  0  0
    1.2810   -2.9355    0.0000 C   0  0  0  0  0  0  0  0  0
    0.6762   -2.3744    0.0000 C   0  0  0  0  0  0  0  0  0
  1  2  1  0  0  0  0
  2  3  4  0  0  0  0
  2 30  4  0  0  0  0
  3  4  4  0  0  0  0
  4  5  1  0  0  0  0
  4 28  4  0  0  0  0
  5  6  2  0  0  0  0
  6  7  1  0  0  0  0
  6 14  1  0  0  0  0
  7  8  1  0  0  0  0
  7 12  1  0  0  0  0
  8  9  1  0  0  0  0
  9 10  1  0  0  0  0
 10 11  1  0  0  0  0
 10 13  1  0  0  0  0
 11 12  1  0  0  0  0
 14 15  4  0  0  0  0
 14 34  4  0  0  0  0
 15 16  1  0  0  0  0
 15 31  4  0  0  0  0
 16 17  1  0  0  0  0
 16 28  1  0  0  0  0
 17 18  1  0  0  0  0
 18 19  2  0  0  0  0
 18 20  1  0  0  0  0
 20 21  4  0  0  0  0
 20 25  4  0  0  0  0
 21 22  4  0  0  0  0
 21 27  1  0  0  0  0
 22 23  4  0  0  0  0
 23 24  4  0  0  0  0
 24 25  4  0  0  0  0
 25 26  1  0  0  0  0
 28 29  4  0  0  0  0
 29 30  4  0  0  0  0
 31 32  4  0  0  0  0
 32 33  4  0  0  0  0
 33 34  4  0  0  0  0
M  END
>  <Name_Molregno>
357447

>  <5-HT2A>
8.54

>  <Alpha-2A>
6.34

>  <DOPAMINE D1>
8.49

>  <DOPAMINE D2>
5.99

>  <DOPAMINE D4>
5.31

>  <DOPAMINE D5>
7.24

$$$$
358277
  Marvin  02231216192D 0   1.00000     0.00000     0

 15 16  0  0  1  0  0  0  0  0999 V2000
    3.9185    0.8062    0.0000 Br  0  0  0  0  0  0  0  0  0
    3.2041    0.3937    0.0000 C   0  0  0  0  0  0  0  0  0
    3.2041   -0.4313    0.0000 C   0  0  0  0  0  0  0  0  0
    2.4896   -0.8438    0.0000 C   0  0  0  0  0  0  0  0  0
    2.4896   -1.6688    0.0000 O   0  0  0  0  0  0  0  0  0
    1.7751   -2.0813    0.0000 C   0  0  0  0  0  0  0  0  0
    1.7751   -0.4313    0.0000 C   0  0  0  0  0  0  0  0  0
    1.7751    0.3937    0.0000 C   0  0  0  0  0  0  0  0  0
    0.9501    0.3937    0.0000 C   0  0  0  0  0  0  0  0  0
    0.9501   -0.4313    0.0000 C   0  0  0  0  0  0  0  0  0
    0.3668   -1.0147    0.0000 C   0  0  0  0  0  0  0  0  0
    0.5803   -1.8116    0.0000 N   0  0  0  0  0  0  0  0  0
    2.4896    0.8062    0.0000 C   0  0  0  0  0  0  0  0  0
    2.4896    1.6312    0.0000 O   0  0  0  0  0  0  0  0  0
    1.7751    2.0437    0.0000 C   0  0  0  0  0  0  0  0  0
  1  2  1  0  0  0  0
  2  3  4  0  0  0  0
  2 13  4  0  0  0  0
  3  4  4  0  0  0  0
  4  5  1  0  0  0  0
  4  7  4  0  0  0  0
  5  6  1  0  0  0  0
  7  8  4  0  0  0  0
  7 10  1  0  0  0  0
  8  9  1  0  0  0  0
  8 13  4  0  0  0  0
  9 10  1  0  0  0  0
 10 11  1  0  0  0  0
 11 12  1  0  0  0  0
 13 14  1  0  0  0  0
 14 15  1  0  0  0  0
M  END
>  <Name_Molregno>
358277

>  <5-HT2A>
8.81

$$$$
358640
  Marvin  02231216192D 0   1.00000     0.00000     0

 16 17  0  0  1  0  0  0  0  0999 V2000
    3.6335   -0.0781    0.0000 Br  0  0  0  0  0  0  0  0  0
    2.9190   -0.4906    0.0000 C   0  0  0  0  0  0  0  0  0
    2.9190   -1.3156    0.0000 C   0  0  0  0  0  0  0  0  0
    2.2045   -1.7281    0.0000 C   0  0  0  0  0  0  0  0  0
    2.2045   -2.5531    0.0000 O   0  0  0  0  0  0  0  0  0
    1.4901   -2.9656    0.0000 C   0  0  0  0  0  0  0  0  0
    1.4901   -1.3156    0.0000 C   0  0  0  0  0  0  0  0  0
    1.4901   -0.4906    0.0000 C   0  0  0  0  0  0  0  0  0
    0.7054   -0.2357    0.0000 C   0  0  0  0  0  0  0  0  0
    0.2205   -0.9031    0.0000 C   0  0  0  0  0  0  0  0  0
    0.7054   -1.5706    0.0000 C   0  0  0  0  0  0  0  0  0
    0.4505   -2.3552    0.0000 C   0  0  0  0  0  0  0  0  0
    1.0025   -2.9683    0.0000 N   0  0  0  0  0  0  0  0  0
    2.2045   -0.0781    0.0000 C   0  0  0  0  0  0  0  0  0
    2.2045    0.7469    0.0000 O   0  0  0  0  0  0  0  0  0
    1.4901    1.1594    0.0000 C   0  0  0  0  0  0  0  0  0
  1  2  1  0  0  0  0
  2  3  4  0  0  0  0
  2 14  4  0  0  0  0
  3  4  4  0  0  0  0
  4  5  1  0  0  0  0
  4  7  4  0  0  0  0
  5  6  1  0  0  0  0
  7  8  4  0  0  0  0
  7 11  1  0  0  0  0
  8  9  1  0  0  0  0
  8 14  4  0  0  0  0
  9 10  1  0  0  0  0
 10 11  1  0  0  0  0
 11 12  1  0  0  0  0
 12 13  1  0  0  0  0
 14 15  1  0  0  0  0
 15 16  1  0  0  0  0
M  END
>  <Name_Molregno>
358640

>  <5-HT2A>
7.28

$$$$
358641
  Marvin  02231216192D 0   1.00000     0.00000     0

 18 20  0  0  1  0  0  0  0  0999 V2000
   -0.2823   -0.1985    0.0000 Br  0  0  0  0  0  0  0  0  0
    0.4184   -0.6341    0.0000 C   0  0  0  0  0  0  0  0  0
    0.3915   -1.4587    0.0000 C   0  0  0  0  0  0  0  0  0
    1.0922   -1.8942    0.0000 C   0  0  0  0  0  0  0  0  0
    1.0542   -2.7184    0.0000 O   0  0  0  0  0  0  0  0  0
    1.7489   -3.1633    0.0000 C   0  0  0  0  0  0  0  0  0
    1.8690   -1.5054    0.0000 C   0  0  0  0  0  0  0  0  0
    1.8466   -0.6807    0.0000 C   0  0  0  0  0  0  0  0  0
    1.1459   -0.2451    0.0000 C   0  0  0  0  0  0  0  0  0
    1.3437    0.5558    0.0000 O   0  0  0  0  0  0  0  0  0
    2.1665    0.6153    0.0000 C   0  0  0  0  0  0  0  0  0
    2.4773   -0.1489    0.0000 C   0  0  0  0  0  0  0  0  0
    3.2864   -0.3105    0.0000 C   0  0  0  0  0  0  0  0  0
    3.6644   -1.0438    0.0000 C   0  0  0  0  0  0  0  0  0
    3.3268   -1.7966    0.0000 C   0  0  0  0  0  0  0  0  0
    2.5278   -2.0020    0.0000 C   0  0  0  0  0  0  0  0  0
    2.3662   -2.8110    0.0000 C   0  0  0  0  0  0  0  0  0
    2.9861   -3.3555    0.0000 N   0  0  0  0  0  0  0  0  0
  1  2  1  0  0  0  0
  2  3  4  0  0  0  0
  2  9  4  0  0  0  0
  3  4  4  0  0  0  0
  4  5  1  0  0  0  0
  4  7  4  0  0  0  0
  5  6  1  0  0  0  0
  7  8  4  0  0  0  0
  7 16  1  0  0  0  0
  8  9  4  0  0  0  0
  8 12  1  0  0  0  0
  9 10  1  0  0  0  0
 10 11  1  0  0  0  0
 11 12  1  0  0  0  0
 12 13  1  0  0  0  0
 13 14  1  0  0  0  0
 14 15  1  0  0  0  0
 15 16  1  0  0  0  0
 16 17  1  0  0  0  0
 17 18  1  0  0  0  0
M  END
>  <Name_Molregno>
358641

>  <5-HT2A>
6.73

$$$$
367153
  Marvin  02231216192D 0   1.00000     0.00000     0

 30 34  0  0  0  0  0  0  0  0999 V2000
    4.4761    6.6520    0.0000 F   0  0  0  0  0  0  0  0  0
    4.4761    5.8270    0.0000 C   0  0  0  0  0  0  0  0  0
    5.1906    5.4145    0.0000 C   0  0  0  0  0  0  0  0  0
    5.1906    4.5895    0.0000 C   0  0  0  0  0  0  0  0  0
    4.4761    4.1770    0.0000 C   0  0  0  0  0  0  0  0  0
    3.7617    4.5895    0.0000 C   0  0  0  0  0  0  0  0  0
    3.7617    5.4145    0.0000 C   0  0  0  0  0  0  0  0  0
    4.4761    3.3520    0.0000 C   0  0  0  0  0  0  0  0  0
    5.1906    2.9395    0.0000 C   0  0  0  0  0  0  0  0  0
    5.1906    2.1145    0.0000 C   0  0  0  0  0  0  0  0  0
    4.4761    1.7020    0.0000 C   0  0  0  0  0  0  0  0  0
    3.7617    2.1145    0.0000 N   0  0  0  0  0  0  0  0  0
    3.7617    2.9395    0.0000 C   0  0  0  0  0  0  0  0  0
    5.9051    1.7020    0.0000 C   0  0  0  0  0  0  0  0  0
    5.9051    0.8770    0.0000 N   0  0  0  0  0  0  0  0  0
    6.6196    0.4645    0.0000 C   0  0  0  0  0  0  0  0  0
    6.6196   -0.3605    0.0000 C   0  0  0  0  0  0  0  0  0
    5.9051   -0.7730    0.0000 N   0  0  0  0  0  0  0  0  0
    5.1906   -0.3605    0.0000 C   0  0  0  0  0  0  0  0  0
    5.1906    0.4645    0.0000 C   0  0  0  0  0  0  0  0  0
    5.9051   -1.5980    0.0000 C   0  0  0  0  0  0  0  0  0
    6.6196   -2.0105    0.0000 C   0  0  0  0  0  0  0  0  0
    7.3340   -1.5980    0.0000 O   0  0  0  0  0  0  0  0  0
    8.0485   -2.0105    0.0000 C   0  0  0  0  0  0  0  0  0
    8.0485   -2.8355    0.0000 C   0  0  0  0  0  0  0  0  0
    7.3340   -3.2480    0.0000 O   0  0  0  0  0  0  0  0  0
    6.6196   -2.8355    0.0000 C   0  0  0  0  0  0  0  0  0
    5.9051   -3.2480    0.0000 C   0  0  0  0  0  0  0  0  0
    5.1906   -2.8355    0.0000 C   0  0  0  0  0  0  0  0  0
    5.1906   -2.0105    0.0000 C   0  0  0  0  0  0  0  0  0
  1  2  1  0  0  0  0
  2  3  4  0  0  0  0
  2  7  4  0  0  0  0
  3  4  4  0  0  0  0
  4  5  4  0  0  0  0
  5  6  4  0  0  0  0
  5  8  1  0  0  0  0
  6  7  4  0  0  0  0
  8  9  4  0  0  0  0
  8 13  4  0  0  0  0
  9 10  4  0  0  0  0
 10 11  4  0  0  0  0
 10 14  1  0  0  0  0
 11 12  4  0  0  0  0
 12 13  4  0  0  0  0
 14 15  1  0  0  0  0
 15 16  1  0  0  0  0
 15 20  1  0  0  0  0
 16 17  1  0  0  0  0
 17 18  1  0  0  0  0
 18 19  1  0  0  0  0
 18 21  1  0  0  0  0
 19 20  1  0  0  0  0
 21 22  4  0  0  0  0
 21 30  4  0  0  0  0
 22 23  1  0  0  0  0
 22 27  4  0  0  0  0
 23 24  1  0  0  0  0
 24 25  1  0  0  0  0
 25 26  1  0  0  0  0
 26 27  1  0  0  0  0
 27 28  4  0  0  0  0
 28 29  4  0  0  0  0
 29 30  4  0  0  0  0
M  END
>  <Name_Molregno>
367153

>  <5-HT1A>
9.1

>  <5-HT2A>
6.6

>  <5-HT7>
7.2

>  <DOPAMINE D3>
8.4

$$$$
370425
  Marvin  02231216192D 0   1.00000     0.00000     0

 16 18  0  0  1  0  0  0  0  0999 V2000
   -0.1744   -1.9837    0.0000 S   0  0  0  0  0  0  0  0  0
    0.6326   -2.1552    0.0000 C   0  0  0  0  0  0  0  0  0
   -0.4293   -1.1991    0.0000 C   0  0  0  0  0  0  0  0  0
   -1.2363   -1.0276    0.0000 C   0  0  0  0  0  0  0  0  0
   -1.4912   -0.2429    0.0000 C   0  0  0  0  0  0  0  0  0
   -2.3162   -0.2429    0.0000 C   0  0  0  0  0  0  0  0  0
   -2.5712   -1.0276    0.0000 N   0  0  0  0  0  0  0  0  0
   -3.3781   -1.1991    0.0000 C   0  0  0  0  0  0  0  0  0
   -3.9302   -0.5860    0.0000 C   0  0  0  0  0  0  0  0  0
   -3.6752    0.1986    0.0000 N   0  0  0  0  0  0  0  0  0
   -2.8682    0.3701    0.0000 C   0  0  0  0  0  0  0  0  0
   -1.9037   -1.5125    0.0000 C   0  0  0  0  0  0  0  0  0
   -1.9037   -2.3375    0.0000 O   0  0  0  0  0  0  0  0  0
   -0.9392    0.3701    0.0000 C   0  0  0  0  0  0  0  0  0
   -0.1322    0.1986    0.0000 C   0  0  0  0  0  0  0  0  0
    0.1227   -0.5860    0.0000 C   0  0  0  0  0  0  0  0  0
  1  2  1  0  0  0  0
  1  3  1  0  0  0  0
  3  4  4  0  0  0  0
  3 16  4  0  0  0  0
  4  5  4  0  0  0  0
  4 12  1  0  0  0  0
  5  6  1  0  0  0  0
  5 14  4  0  0  0  0
  6  7  1  0  0  0  0
  6 11  1  0  0  0  0
  7  8  1  0  0  0  0
  7 12  1  0  0  0  0
  8  9  1  0  0  0  0
  9 10  1  0  0  0  0
 10 11  1  0  0  0  0
 12 13  2  0  0  0  0
 14 15  4  0  0  0  0
 15 16  4  0  0  0  0
M  END
>  <Name_Molregno>
370425

>  <5-HT2A>
6.67

>  <5-HT2C>
7.4

$$$$
370466
  Marvin  02231216192D 0   1.00000     0.00000     0

 15 17  0  0  1  0  0  0  0  0999 V2000
    3.4121   -2.1308    0.0000 O   0  0  0  0  0  0  0  0  0
    3.1572   -1.3462    0.0000 C   0  0  0  0  0  0  0  0  0
    2.3502   -1.1747    0.0000 C   0  0  0  0  0  0  0  0  0
    2.0953   -0.3901    0.0000 C   0  0  0  0  0  0  0  0  0
    1.2703   -0.3901    0.0000 C   0  0  0  0  0  0  0  0  0
    1.0153   -1.1747    0.0000 N   0  0  0  0  0  0  0  0  0
    0.2084   -1.3462    0.0000 C   0  0  0  0  0  0  0  0  0
   -0.3437   -0.7331    0.0000 C   0  0  0  0  0  0  0  0  0
   -0.0887    0.0515    0.0000 N   0  0  0  0  0  0  0  0  0
    0.7182    0.2230    0.0000 C   0  0  0  0  0  0  0  0  0
    1.6828   -1.6596    0.0000 C   0  0  0  0  0  0  0  0  0
    1.6828   -2.4846    0.0000 O   0  0  0  0  0  0  0  0  0
    2.6473    0.2230    0.0000 C   0  0  0  0  0  0  0  0  0
    3.4543    0.0515    0.0000 C   0  0  0  0  0  0  0  0  0
    3.7092   -0.7331    0.0000 C   0  0  0  0  0  0  0  0  0
  1  2  1  0  0  0  0
  2  3  4  0  0  0  0
  2 15  4  0  0  0  0
  3  4  4  0  0  0  0
  3 11  1  0  0  0  0
  4  5  1  0  0  0  0
  4 13  4  0  0  0  0
  5  6  1  0  0  0  0
  5 10  1  0  0  0  0
  6  7  1  0  0  0  0
  6 11  1  0  0  0  0
  7  8  1  0  0  0  0
  8  9  1  0  0  0  0
  9 10  1  0  0  0  0
 11 12  2  0  0  0  0
 13 14  4  0  0  0  0
 14 15  4  0  0  0  0
M  END
>  <Name_Molregno>
370466

>  <5-HT2A>
5.78

>  <5-HT2C>
6.01

$$$$
370496
  Marvin  02231216192D 0   1.00000     0.00000     0

 18 20  0  0  1  0  0  0  0  0999 V2000
   -0.3392   -0.9842    0.0000 O   0  0  0  0  0  0  0  0  0
    0.4677   -1.1557    0.0000 C   0  0  0  0  0  0  0  0  0
    0.7227   -1.9403    0.0000 C   0  0  0  0  0  0  0  0  0
    1.0198   -0.5426    0.0000 C   0  0  0  0  0  0  0  0  0
   -0.5942   -0.1996    0.0000 C   0  0  0  0  0  0  0  0  0
   -1.4012   -0.0280    0.0000 C   0  0  0  0  0  0  0  0  0
   -1.6561    0.7566    0.0000 C   0  0  0  0  0  0  0  0  0
   -2.4811    0.7566    0.0000 C   0  0  0  0  0  0  0  0  0
   -2.7360   -0.0280    0.0000 N   0  0  0  0  0  0  0  0  0
   -3.5430   -0.1996    0.0000 C   0  0  0  0  0  0  0  0  0
   -4.0950    0.4135    0.0000 C   0  0  0  0  0  0  0  0  0
   -3.8401    1.1982    0.0000 N   0  0  0  0  0  0  0  0  0
   -3.0331    1.3697    0.0000 C   0  0  0  0  0  0  0  0  0
   -2.0686   -0.5130    0.0000 C   0  0  0  0  0  0  0  0  0
   -2.0686   -1.3380    0.0000 O   0  0  0  0  0  0  0  0  0
   -1.1041    1.3697    0.0000 C   0  0  0  0  0  0  0  0  0
   -0.2971    1.1982    0.0000 C   0  0  0  0  0  0  0  0  0
   -0.0422    0.4135    0.0000 C   0  0  0  0  0  0  0  0  0
  1  2  1  0  0  0  0
  1  5  1  0  0  0  0
  2  3  1  0  0  0  0
  2  4  1  0  0  0  0
  5  6  4  0  0  0  0
  5 18  4  0  0  0  0
  6  7  4  0  0  0  0
  6 14  1  0  0  0  0
  7  8  1  0  0  0  0
  7 16  4  0  0  0  0
  8  9  1  0  0  0  0
  8 13  1  0  0  0  0
  9 10  1  0  0  0  0
  9 14  1  0  0  0  0
 10 11  1  0  0  0  0
 11 12  1  0  0  0  0
 12 13  1  0  0  0  0
 14 15  2  0  0  0  0
 16 17  4  0  0  0  0
 17 18  4  0  0  0  0
M  END
>  <Name_Molregno>
370496

>  <5-HT2A>
6.6

>  <5-HT2C>
6.94

$$$$
370505
  Marvin  02231216192D 0   1.00000     0.00000     0

 14 16  0  0  1  0  0  0  0  0999 V2000
    0.5414   -3.2796    0.0000 O   0  0  0  0  0  0  0  0  0
    0.5414   -2.4546    0.0000 C   0  0  0  0  0  0  0  0  0
    1.2089   -1.9696    0.0000 N   0  0  0  0  0  0  0  0  0
    0.9539   -1.1850    0.0000 C   0  0  0  0  0  0  0  0  0
    0.1289   -1.1850    0.0000 C   0  0  0  0  0  0  0  0  0
   -0.1260   -1.9696    0.0000 C   0  0  0  0  0  0  0  0  0
   -0.9330   -2.1412    0.0000 C   0  0  0  0  0  0  0  0  0
   -1.4850   -1.5281    0.0000 C   0  0  0  0  0  0  0  0  0
   -1.2301   -0.7434    0.0000 C   0  0  0  0  0  0  0  0  0
   -0.4231   -0.5719    0.0000 C   0  0  0  0  0  0  0  0  0
    1.5059   -0.5719    0.0000 C   0  0  0  0  0  0  0  0  0
    2.3129   -0.7434    0.0000 N   0  0  0  0  0  0  0  0  0
    2.5679   -1.5281    0.0000 C   0  0  0  0  0  0  0  0  0
    2.0158   -2.1412    0.0000 C   0  0  0  0  0  0  0  0  0
  1  2  2  0  0  0  0
  2  3  1  0  0  0  0
  2  6  1  0  0  0  0
  3  4  1  0  0  0  0
  3 14  1  0  0  0  0
  4  5  1  0  0  0  0
  4 11  1  0  0  0  0
  5  6  4  0  0  0  0
  5 10  4  0  0  0  0
  6  7  4  0  0  0  0
  7  8  4  0  0  0  0
  8  9  4  0  0  0  0
  9 10  4  0  0  0  0
 11 12  1  0  0  0  0
 12 13  1  0  0  0  0
 13 14  1  0  0  0  0
M  END
>  <Name_Molregno>
370505

>  <5-HT2A>
5.07

>  <5-HT2C>
6.2

$$$$
370506
  Marvin  02231216192D 0   1.00000     0.00000     0

 18 20  0  0  1  0  0  0  0  0999 V2000
    0.3620   -2.3425    0.0000 F   0  0  0  0  0  0  0  0  0
    0.1070   -1.5578    0.0000 C   0  0  0  0  0  0  0  0  0
    0.8917   -1.3029    0.0000 F   0  0  0  0  0  0  0  0  0
   -0.6776   -1.8128    0.0000 F   0  0  0  0  0  0  0  0  0
   -0.1479   -0.7732    0.0000 C   0  0  0  0  0  0  0  0  0
   -0.9549   -0.6017    0.0000 C   0  0  0  0  0  0  0  0  0
   -1.2098    0.1829    0.0000 C   0  0  0  0  0  0  0  0  0
   -2.0348    0.1829    0.0000 C   0  0  0  0  0  0  0  0  0
   -2.2897   -0.6017    0.0000 N   0  0  0  0  0  0  0  0  0
   -3.0967   -0.7732    0.0000 C   0  0  0  0  0  0  0  0  0
   -3.6487   -0.1601    0.0000 C   0  0  0  0  0  0  0  0  0
   -3.3938    0.6245    0.0000 N   0  0  0  0  0  0  0  0  0
   -2.5868    0.7960    0.0000 C   0  0  0  0  0  0  0  0  0
   -1.6223   -1.0866    0.0000 C   0  0  0  0  0  0  0  0  0
   -1.6223   -1.9116    0.0000 O   0  0  0  0  0  0  0  0  0
   -0.6578    0.7960    0.0000 C   0  0  0  0  0  0  0  0  0
    0.1492    0.6245    0.0000 C   0  0  0  0  0  0  0  0  0
    0.4041   -0.1601    0.0000 C   0  0  0  0  0  0  0  0  0
  1  2  1  0  0  0  0
  2  3  1  0  0  0  0
  2  4  1  0  0  0  0
  2  5  1  0  0  0  0
  5  6  4  0  0  0  0
  5 18  4  0  0  0  0
  6  7  4  0  0  0  0
  6 14  1  0  0  0  0
  7  8  1  0  0  0  0
  7 16  4  0  0  0  0
  8  9  1  0  0  0  0
  8 13  1  0  0  0  0
  9 10  1  0  0  0  0
  9 14  1  0  0  0  0
 10 11  1  0  0  0  0
 11 12  1  0  0  0  0
 12 13  1  0  0  0  0
 14 15  2  0  0  0  0
 16 17  4  0  0  0  0
 17 18  4  0  0  0  0
M  END
>  <Name_Molregno>
370506

>  <5-HT2A>
6.4

>  <5-HT2C>
7.28

$$$$
370507
  Marvin  02231216192D 0   1.00000     0.00000     0

 16 18  0  0  1  0  0  0  0  0999 V2000
   -0.1744   -1.9837    0.0000 O   0  0  0  0  0  0  0  0  0
    0.6326   -2.1552    0.0000 C   0  0  0  0  0  0  0  0  0
   -0.4293   -1.1991    0.0000 C   0  0  0  0  0  0  0  0  0
   -1.2363   -1.0276    0.0000 C   0  0  0  0  0  0  0  0  0
   -1.4912   -0.2429    0.0000 C   0  0  0  0  0  0  0  0  0
   -2.3162   -0.2429    0.0000 C   0  0  0  0  0  0  0  0  0
   -2.5712   -1.0276    0.0000 N   0  0  0  0  0  0  0  0  0
   -3.3781   -1.1991    0.0000 C   0  0  0  0  0  0  0  0  0
   -3.9302   -0.5860    0.0000 C   0  0  0  0  0  0  0  0  0
   -3.6752    0.1986    0.0000 N   0  0  0  0  0  0  0  0  0
   -2.8682    0.3701    0.0000 C   0  0  0  0  0  0  0  0  0
   -1.9037   -1.5125    0.0000 C   0  0  0  0  0  0  0  0  0
   -1.9037   -2.3375    0.0000 O   0  0  0  0  0  0  0  0  0
   -0.9392    0.3701    0.0000 C   0  0  0  0  0  0  0  0  0
   -0.1322    0.1986    0.0000 C   0  0  0  0  0  0  0  0  0
    0.1227   -0.5860    0.0000 C   0  0  0  0  0  0  0  0  0
  1  2  1  0  0  0  0
  1  3  1  0  0  0  0
  3  4  4  0  0  0  0
  3 16  4  0  0  0  0
  4  5  4  0  0  0  0
  4 12  1  0  0  0  0
  5  6  1  0  0  0  0
  5 14  4  0  0  0  0
  6  7  1  0  0  0  0
  6 11  1  0  0  0  0
  7  8  1  0  0  0  0
  7 12  1  0  0  0  0
  8  9  1  0  0  0  0
  9 10  1  0  0  0  0
 10 11  1  0  0  0  0
 12 13  2  0  0  0  0
 14 15  4  0  0  0  0
 15 16  4  0  0  0  0
M  END
>  <Name_Molregno>
370507

>  <5-HT2A>
5.48

>  <5-HT2C>
6.88

$$$$
370508
  Marvin  02231216192D 0   1.00000     0.00000     0

 19 21  0  0  1  0  0  0  0  0999 V2000
    0.7481   -1.8686    0.0000 F   0  0  0  0  0  0  0  0  0
   -0.0589   -1.6971    0.0000 C   0  0  0  0  0  0  0  0  0
    0.1127   -0.8901    0.0000 F   0  0  0  0  0  0  0  0  0
   -0.2304   -2.5040    0.0000 F   0  0  0  0  0  0  0  0  0
   -0.8658   -1.5255    0.0000 O   0  0  0  0  0  0  0  0  0
   -1.1208   -0.7409    0.0000 C   0  0  0  0  0  0  0  0  0
   -1.9277   -0.5694    0.0000 C   0  0  0  0  0  0  0  0  0
   -2.1827    0.2152    0.0000 C   0  0  0  0  0  0  0  0  0
   -3.0077    0.2152    0.0000 C   0  0  0  0  0  0  0  0  0
   -3.2626   -0.5694    0.0000 N   0  0  0  0  0  0  0  0  0
   -4.0696   -0.7409    0.0000 C   0  0  0  0  0  0  0  0  0
   -4.6216   -0.1278    0.0000 C   0  0  0  0  0  0  0  0  0
   -4.3667    0.6568    0.0000 N   0  0  0  0  0  0  0  0  0
   -3.5597    0.8283    0.0000 C   0  0  0  0  0  0  0  0  0
   -2.5952   -1.0543    0.0000 C   0  0  0  0  0  0  0  0  0
   -2.5952   -1.8793    0.0000 O   0  0  0  0  0  0  0  0  0
   -1.6306    0.8283    0.0000 C   0  0  0  0  0  0  0  0  0
   -0.8237    0.6568    0.0000 C   0  0  0  0  0  0  0  0  0
   -0.5687   -0.1278    0.0000 C   0  0  0  0  0  0  0  0  0
  1  2  1  0  0  0  0
  2  3  1  0  0  0  0
  2  4  1  0  0  0  0
  2  5  1  0  0  0  0
  5  6  1  0  0  0  0
  6  7  4  0  0  0  0
  6 19  4  0  0  0  0
  7  8  4  0  0  0  0
  7 15  1  0  0  0  0
  8  9  1  0  0  0  0
  8 17  4  0  0  0  0
  9 10  1  0  0  0  0
  9 14  1  0  0  0  0
 10 11  1  0  0  0  0
 10 15  1  0  0  0  0
 11 12  1  0  0  0  0
 12 13  1  0  0  0  0
 13 14  1  0  0  0  0
 15 16  2  0  0  0  0
 17 18  4  0  0  0  0
 18 19  4  0  0  0  0
M  END
>  <Name_Molregno>
370508

>  <5-HT2A>
7.17

>  <5-HT2C>
7.7

$$$$
370517
  Marvin  02231216192D 0   1.00000     0.00000     0

 15 17  0  0  1  0  0  0  0  0999 V2000
    3.4121   -2.1308    0.0000 F   0  0  0  0  0  0  0  0  0
    3.1572   -1.3462    0.0000 C   0  0  0  0  0  0  0  0  0
    2.3502   -1.1747    0.0000 C   0  0  0  0  0  0  0  0  0
    2.0953   -0.3901    0.0000 C   0  0  0  0  0  0  0  0  0
    1.2703   -0.3901    0.0000 C   0  0  0  0  0  0  0  0  0
    1.0153   -1.1747    0.0000 N   0  0  0  0  0  0  0  0  0
    0.2084   -1.3462    0.0000 C   0  0  0  0  0  0  0  0  0
   -0.3437   -0.7331    0.0000 C   0  0  0  0  0  0  0  0  0
   -0.0887    0.0515    0.0000 N   0  0  0  0  0  0  0  0  0
    0.7182    0.2230    0.0000 C   0  0  0  0  0  0  0  0  0
    1.6828   -1.6596    0.0000 C   0  0  0  0  0  0  0  0  0
    1.6828   -2.4846    0.0000 O   0  0  0  0  0  0  0  0  0
    2.6473    0.2230    0.0000 C   0  0  0  0  0  0  0  0  0
    3.4543    0.0515    0.0000 C   0  0  0  0  0  0  0  0  0
    3.7092   -0.7331    0.0000 C   0  0  0  0  0  0  0  0  0
  1  2  1  0  0  0  0
  2  3  4  0  0  0  0
  2 15  4  0  0  0  0
  3  4  4  0  0  0  0
  3 11  1  0  0  0  0
  4  5  1  0  0  0  0
  4 13  4  0  0  0  0
  5  6  1  0  0  0  0
  5 10  1  0  0  0  0
  6  7  1  0  0  0  0
  6 11  1  0  0  0  0
  7  8  1  0  0  0  0
  8  9  1  0  0  0  0
  9 10  1  0  0  0  0
 11 12  2  0  0  0  0
 13 14  4  0  0  0  0
 14 15  4  0  0  0  0
M  END
>  <Name_Molregno>
370517

>  <5-HT2A>
5

>  <5-HT2C>
5.99

$$$$
370519
  Marvin  02231216192D 0   1.00000     0.00000     0

 15 17  0  0  1  0  0  0  0  0999 V2000
    3.4121   -2.1308    0.0000 Cl  0  0  0  0  0  0  0  0  0
    3.1572   -1.3462    0.0000 C   0  0  0  0  0  0  0  0  0
    2.3502   -1.1747    0.0000 C   0  0  0  0  0  0  0  0  0
    2.0953   -0.3901    0.0000 C   0  0  0  0  0  0  0  0  0
    1.2703   -0.3901    0.0000 C   0  0  0  0  0  0  0  0  0
    1.0153   -1.1747    0.0000 N   0  0  0  0  0  0  0  0  0
    0.2084   -1.3462    0.0000 C   0  0  0  0  0  0  0  0  0
   -0.3437   -0.7331    0.0000 C   0  0  0  0  0  0  0  0  0
   -0.0887    0.0515    0.0000 N   0  0  0  0  0  0  0  0  0
    0.7182    0.2230    0.0000 C   0  0  0  0  0  0  0  0  0
    1.6828   -1.6596    0.0000 C   0  0  0  0  0  0  0  0  0
    1.6828   -2.4846    0.0000 O   0  0  0  0  0  0  0  0  0
    2.6473    0.2230    0.0000 C   0  0  0  0  0  0  0  0  0
    3.4543    0.0515    0.0000 C   0  0  0  0  0  0  0  0  0
    3.7092   -0.7331    0.0000 C   0  0  0  0  0  0  0  0  0
  1  2  1  0  0  0  0
  2  3  4  0  0  0  0
  2 15  4  0  0  0  0
  3  4  4  0  0  0  0
  3 11  1  0  0  0  0
  4  5  1  0  0  0  0
  4 13  4  0  0  0  0
  5  6  1  0  0  0  0
  5 10  1  0  0  0  0
  6  7  1  0  0  0  0
  6 11  1  0  0  0  0
  7  8  1  0  0  0  0
  8  9  1  0  0  0  0
  9 10  1  0  0  0  0
 11 12  2  0  0  0  0
 13 14  4  0  0  0  0
 14 15  4  0  0  0  0
M  END
>  <Name_Molregno>
370519

>  <5-HT2A>
6.23

>  <5-HT2C>
7.51

$$$$
370520
  Marvin  02231216192D 0   1.00000     0.00000     0

 16 18  0  0  1  0  0  0  0  0999 V2000
   -0.0197   -2.9351    0.0000 O   0  0  0  0  0  0  0  0  0
   -0.0197   -2.1101    0.0000 C   0  0  0  0  0  0  0  0  0
    0.6477   -1.6251    0.0000 N   0  0  0  0  0  0  0  0  0
    0.3928   -0.8405    0.0000 C   0  0  0  0  0  0  0  0  0
   -0.4322   -0.8405    0.0000 C   0  0  0  0  0  0  0  0  0
   -0.6872   -1.6251    0.0000 C   0  0  0  0  0  0  0  0  0
   -1.4941   -1.7967    0.0000 C   0  0  0  0  0  0  0  0  0
   -2.0462   -1.1836    0.0000 C   0  0  0  0  0  0  0  0  0
   -1.7912   -0.3990    0.0000 C   0  0  0  0  0  0  0  0  0
   -0.9842   -0.2274    0.0000 C   0  0  0  0  0  0  0  0  0
   -1.7491   -2.5813    0.0000 C   0  0  0  0  0  0  0  0  0
   -2.0040   -3.3659    0.0000 N   0  0  0  0  0  0  0  0  0
    0.9448   -0.2274    0.0000 C   0  0  0  0  0  0  0  0  0
    1.7518   -0.3990    0.0000 N   0  0  0  0  0  0  0  0  0
    2.0067   -1.1836    0.0000 C   0  0  0  0  0  0  0  0  0
    1.4547   -1.7967    0.0000 C   0  0  0  0  0  0  0  0  0
  1  2  2  0  0  0  0
  2  3  1  0  0  0  0
  2  6  1  0  0  0  0
  3  4  1  0  0  0  0
  3 16  1  0  0  0  0
  4  5  1  0  0  0  0
  4 13  1  0  0  0  0
  5  6  4  0  0  0  0
  5 10  4  0  0  0  0
  6  7  4  0  0  0  0
  7  8  4  0  0  0  0
  7 11  1  0  0  0  0
  8  9  4  0  0  0  0
  9 10  4  0  0  0  0
 11 12  3  0  0  0  0
 13 14  1  0  0  0  0
 14 15  1  0  0  0  0
 15 16  1  0  0  0  0
M  END
>  <Name_Molregno>
370520

>  <5-HT2A>
5

>  <5-HT2C>
6.52

$$$$
370528
  Marvin  02231216192D 0   1.00000     0.00000     0

 19 21  0  0  1  0  0  0  0  0999 V2000
    0.2731   -2.5735    0.0000 F   0  0  0  0  0  0  0  0  0
    0.0181   -1.7888    0.0000 C   0  0  0  0  0  0  0  0  0
    0.8028   -1.5339    0.0000 F   0  0  0  0  0  0  0  0  0
   -0.7665   -2.0438    0.0000 F   0  0  0  0  0  0  0  0  0
   -0.2368   -1.0042    0.0000 C   0  0  0  0  0  0  0  0  0
   -1.0438   -0.8327    0.0000 C   0  0  0  0  0  0  0  0  0
   -1.2987   -0.0481    0.0000 C   0  0  0  0  0  0  0  0  0
   -0.7467    0.5650    0.0000 C   0  0  0  0  0  0  0  0  0
    0.0603    0.3935    0.0000 C   0  0  0  0  0  0  0  0  0
    0.3152   -0.3911    0.0000 C   0  0  0  0  0  0  0  0  0
    0.6123    1.0066    0.0000 C   0  0  0  0  0  0  0  0  0
   -2.1237   -0.0481    0.0000 C   0  0  0  0  0  0  0  0  0
   -2.3786   -0.8327    0.0000 N   0  0  0  0  0  0  0  0  0
   -3.1856   -1.0042    0.0000 C   0  0  0  0  0  0  0  0  0
   -3.7376   -0.3911    0.0000 C   0  0  0  0  0  0  0  0  0
   -3.4827    0.3935    0.0000 N   0  0  0  0  0  0  0  0  0
   -2.6757    0.5650    0.0000 C   0  0  0  0  0  0  0  0  0
   -1.7112   -1.3176    0.0000 C   0  0  0  0  0  0  0  0  0
   -1.7112   -2.1426    0.0000 O   0  0  0  0  0  0  0  0  0
  1  2  1  0  0  0  0
  2  3  1  0  0  0  0
  2  4  1  0  0  0  0
  2  5  1  0  0  0  0
  5  6  4  0  0  0  0
  5 10  4  0  0  0  0
  6  7  4  0  0  0  0
  6 18  1  0  0  0  0
  7  8  4  0  0  0  0
  7 12  1  0  0  0  0
  8  9  4  0  0  0  0
  9 10  4  0  0  0  0
  9 11  1  0  0  0  0
 12 13  1  0  0  0  0
 12 17  1  0  0  0  0
 13 14  1  0  0  0  0
 13 18  1  0  0  0  0
 14 15  1  0  0  0  0
 15 16  1  0  0  0  0
 16 17  1  0  0  0  0
 18 19  2  0  0  0  0
M  END
>  <Name_Molregno>
370528

>  <5-HT2A>
6.25

>  <5-HT2C>
8.05

$$$$
370529
  Marvin  02231216192D 0   1.00000     0.00000     0

 20 22  0  0  1  0  0  0  0  0999 V2000
    3.0974   -3.5983    0.0000 F   0  0  0  0  0  0  0  0  0
    2.8425   -2.8137    0.0000 C   0  0  0  0  0  0  0  0  0
    3.6271   -2.5587    0.0000 F   0  0  0  0  0  0  0  0  0
    2.0579   -3.0686    0.0000 F   0  0  0  0  0  0  0  0  0
    2.5876   -2.0291    0.0000 C   0  0  0  0  0  0  0  0  0
    1.7806   -1.8575    0.0000 C   0  0  0  0  0  0  0  0  0
    1.5257   -1.0729    0.0000 C   0  0  0  0  0  0  0  0  0
    2.0777   -0.4598    0.0000 C   0  0  0  0  0  0  0  0  0
    2.8847   -0.6313    0.0000 C   0  0  0  0  0  0  0  0  0
    3.1396   -1.4160    0.0000 C   0  0  0  0  0  0  0  0  0
    3.4367   -0.0182    0.0000 C   0  0  0  0  0  0  0  0  0
    4.2437   -0.1898    0.0000 C   0  0  0  0  0  0  0  0  0
    0.7007   -1.0729    0.0000 C   0  0  0  0  0  0  0  0  0
    0.4457   -1.8575    0.0000 N   0  0  0  0  0  0  0  0  0
   -0.3613   -2.0291    0.0000 C   0  0  0  0  0  0  0  0  0
   -0.9133   -1.4160    0.0000 C   0  0  0  0  0  0  0  0  0
   -0.6584   -0.6313    0.0000 N   0  0  0  0  0  0  0  0  0
    0.1486   -0.4598    0.0000 C   0  0  0  0  0  0  0  0  0
    1.1132   -2.3424    0.0000 C   0  0  0  0  0  0  0  0  0
    1.1132   -3.1674    0.0000 O   0  0  0  0  0  0  0  0  0
  1  2  1  0  0  0  0
  2  3  1  0  0  0  0
  2  4  1  0  0  0  0
  2  5  1  0  0  0  0
  5  6  4  0  0  0  0
  5 10  4  0  0  0  0
  6  7  4  0  0  0  0
  6 19  1  0  0  0  0
  7  8  4  0  0  0  0
  7 13  1  0  0  0  0
  8  9  4  0  0  0  0
  9 10  4  0  0  0  0
  9 11  1  0  0  0  0
 11 12  1  0  0  0  0
 13 14  1  0  0  0  0
 13 18  1  0  0  0  0
 14 15  1  0  0  0  0
 14 19  1  0  0  0  0
 15 16  1  0  0  0  0
 16 17  1  0  0  0  0
 17 18  1  0  0  0  0
 19 20  2  0  0  0  0
M  END
>  <Name_Molregno>
370529

>  <5-HT2A>
6.37

>  <5-HT2C>
7.7

$$$$
370530
  Marvin  02231216192D 0   1.00000     0.00000     0

 21 23  0  0  1  0  0  0  0  0999 V2000
    1.4553   -3.6451    0.0000 F   0  0  0  0  0  0  0  0  0
    1.2003   -2.8605    0.0000 C   0  0  0  0  0  0  0  0  0
    1.9850   -2.6055    0.0000 F   0  0  0  0  0  0  0  0  0
    0.4157   -3.1154    0.0000 F   0  0  0  0  0  0  0  0  0
    0.9454   -2.0758    0.0000 C   0  0  0  0  0  0  0  0  0
    0.1384   -1.9043    0.0000 C   0  0  0  0  0  0  0  0  0
   -0.1165   -1.1197    0.0000 C   0  0  0  0  0  0  0  0  0
    0.4355   -0.5066    0.0000 C   0  0  0  0  0  0  0  0  0
    1.2425   -0.6781    0.0000 C   0  0  0  0  0  0  0  0  0
    1.4974   -1.4627    0.0000 C   0  0  0  0  0  0  0  0  0
    1.7945   -0.0650    0.0000 C   0  0  0  0  0  0  0  0  0
    2.6015   -0.2366    0.0000 C   0  0  0  0  0  0  0  0  0
    3.1535    0.3765    0.0000 C   0  0  0  0  0  0  0  0  0
   -0.9415   -1.1197    0.0000 C   0  0  0  0  0  0  0  0  0
   -1.1965   -1.9043    0.0000 N   0  0  0  0  0  0  0  0  0
   -2.0034   -2.0758    0.0000 C   0  0  0  0  0  0  0  0  0
   -2.5555   -1.4627    0.0000 C   0  0  0  0  0  0  0  0  0
   -2.3005   -0.6781    0.0000 N   0  0  0  0  0  0  0  0  0
   -1.4935   -0.5066    0.0000 C   0  0  0  0  0  0  0  0  0
   -0.5290   -2.3892    0.0000 C   0  0  0  0  0  0  0  0  0
   -0.5290   -3.2142    0.0000 O   0  0  0  0  0  0  0  0  0
  1  2  1  0  0  0  0
  2  3  1  0  0  0  0
  2  4  1  0  0  0  0
  2  5  1  0  0  0  0
  5  6  4  0  0  0  0
  5 10  4  0  0  0  0
  6  7  4  0  0  0  0
  6 20  1  0  0  0  0
  7  8  4  0  0  0  0
  7 14  1  0  0  0  0
  8  9  4  0  0  0  0
  9 10  4  0  0  0  0
  9 11  1  0  0  0  0
 11 12  1  0  0  0  0
 12 13  1  0  0  0  0
 14 15  1  0  0  0  0
 14 19  1  0  0  0  0
 15 16  1  0  0  0  0
 15 20  1  0  0  0  0
 16 17  1  0  0  0  0
 17 18  1  0  0  0  0
 18 19  1  0  0  0  0
 20 21  2  0  0  0  0
M  END
>  <Name_Molregno>
370530

>  <5-HT2A>
5.97

>  <5-HT2C>
7.32

$$$$
370536
  Marvin  02231216192D 0   1.00000     0.00000     0

 22 24  0  0  1  0  0  0  0  0999 V2000
    0.1468   -4.5382    0.0000 F   0  0  0  0  0  0  0  0  0
   -0.1082   -3.7536    0.0000 C   0  0  0  0  0  0  0  0  0
    0.6765   -3.4986    0.0000 F   0  0  0  0  0  0  0  0  0
   -0.8928   -4.0085    0.0000 F   0  0  0  0  0  0  0  0  0
   -0.3631   -2.9690    0.0000 C   0  0  0  0  0  0  0  0  0
   -1.1701   -2.7974    0.0000 C   0  0  0  0  0  0  0  0  0
   -1.4250   -2.0128    0.0000 C   0  0  0  0  0  0  0  0  0
   -0.8730   -1.3997    0.0000 C   0  0  0  0  0  0  0  0  0
   -0.0660   -1.5713    0.0000 C   0  0  0  0  0  0  0  0  0
    0.1889   -2.3559    0.0000 C   0  0  0  0  0  0  0  0  0
    0.4860   -0.9582    0.0000 C   0  0  0  0  0  0  0  0  0
    1.2930   -1.1297    0.0000 C   0  0  0  0  0  0  0  0  0
    1.8450   -0.5166    0.0000 C   0  0  0  0  0  0  0  0  0
    2.6520   -0.6881    0.0000 C   0  0  0  0  0  0  0  0  0
   -2.2500   -2.0128    0.0000 C   0  0  0  0  0  0  0  0  0
   -2.5050   -2.7974    0.0000 N   0  0  0  0  0  0  0  0  0
   -3.3119   -2.9690    0.0000 C   0  0  0  0  0  0  0  0  0
   -3.8640   -2.3559    0.0000 C   0  0  0  0  0  0  0  0  0
   -3.6090   -1.5713    0.0000 N   0  0  0  0  0  0  0  0  0
   -2.8021   -1.3997    0.0000 C   0  0  0  0  0  0  0  0  0
   -1.8375   -3.2824    0.0000 C   0  0  0  0  0  0  0  0  0
   -1.8375   -4.1074    0.0000 O   0  0  0  0  0  0  0  0  0
  1  2  1  0  0  0  0
  2  3  1  0  0  0  0
  2  4  1  0  0  0  0
  2  5  1  0  0  0  0
  5  6  4  0  0  0  0
  5 10  4  0  0  0  0
  6  7  4  0  0  0  0
  6 21  1  0  0  0  0
  7  8  4  0  0  0  0
  7 15  1  0  0  0  0
  8  9  4  0  0  0  0
  9 10  4  0  0  0  0
  9 11  1  0  0  0  0
 11 12  1  0  0  0  0
 12 13  1  0  0  0  0
 13 14  1  0  0  0  0
 15 16  1  0  0  0  0
 15 20  1  0  0  0  0
 16 17  1  0  0  0  0
 16 21  1  0  0  0  0
 17 18  1  0  0  0  0
 18 19  1  0  0  0  0
 19 20  1  0  0  0  0
 21 22  2  0  0  0  0
M  END
>  <Name_Molregno>
370536

>  <5-HT2A>
6.2

>  <5-HT2C>
7.24

$$$$
370537
  Marvin  02231216192D 0   1.00000     0.00000     0

 21 23  0  0  1  0  0  0  0  0999 V2000
    1.2065   -3.6031    0.0000 F   0  0  0  0  0  0  0  0  0
    0.9516   -2.8184    0.0000 C   0  0  0  0  0  0  0  0  0
    1.7362   -2.5635    0.0000 F   0  0  0  0  0  0  0  0  0
    0.1670   -3.0734    0.0000 F   0  0  0  0  0  0  0  0  0
    0.6967   -2.0338    0.0000 C   0  0  0  0  0  0  0  0  0
   -0.1103   -1.8623    0.0000 C   0  0  0  0  0  0  0  0  0
   -0.3652   -1.0777    0.0000 C   0  0  0  0  0  0  0  0  0
    0.1868   -0.4646    0.0000 C   0  0  0  0  0  0  0  0  0
    0.9938   -0.6361    0.0000 C   0  0  0  0  0  0  0  0  0
    1.2487   -1.4207    0.0000 C   0  0  0  0  0  0  0  0  0
    1.5458   -0.0230    0.0000 C   0  0  0  0  0  0  0  0  0
    2.3528   -0.1945    0.0000 C   0  0  0  0  0  0  0  0  0
    1.2909    0.7616    0.0000 C   0  0  0  0  0  0  0  0  0
   -1.1902   -1.0777    0.0000 C   0  0  0  0  0  0  0  0  0
   -1.4452   -1.8623    0.0000 N   0  0  0  0  0  0  0  0  0
   -2.2522   -2.0338    0.0000 C   0  0  0  0  0  0  0  0  0
   -2.8042   -1.4207    0.0000 C   0  0  0  0  0  0  0  0  0
   -2.5493   -0.6361    0.0000 N   0  0  0  0  0  0  0  0  0
   -1.7423   -0.4646    0.0000 C   0  0  0  0  0  0  0  0  0
   -0.7777   -2.3472    0.0000 C   0  0  0  0  0  0  0  0  0
   -0.7777   -3.1722    0.0000 O   0  0  0  0  0  0  0  0  0
  1  2  1  0  0  0  0
  2  3  1  0  0  0  0
  2  4  1  0  0  0  0
  2  5  1  0  0  0  0
  5  6  4  0  0  0  0
  5 10  4  0  0  0  0
  6  7  4  0  0  0  0
  6 20  1  0  0  0  0
  7  8  4  0  0  0  0
  7 14  1  0  0  0  0
  8  9  4  0  0  0  0
  9 10  4  0  0  0  0
  9 11  1  0  0  0  0
 11 12  1  0  0  0  0
 11 13  1  0  0  0  0
 14 15  1  0  0  0  0
 14 19  1  0  0  0  0
 15 16  1  0  0  0  0
 15 20  1  0  0  0  0
 16 17  1  0  0  0  0
 17 18  1  0  0  0  0
 18 19  1  0  0  0  0
 20 21  2  0  0  0  0
M  END
>  <Name_Molregno>
370537

>  <5-HT2A>
5.58

>  <5-HT2C>
7.29

$$$$
370538
  Marvin  02231216192D 0   1.00000     0.00000     0

 20 22  0  0  1  0  0  0  0  0999 V2000
    3.0974   -3.5983    0.0000 F   0  0  0  0  0  0  0  0  0
    2.8425   -2.8137    0.0000 C   0  0  0  0  0  0  0  0  0
    3.6271   -2.5587    0.0000 F   0  0  0  0  0  0  0  0  0
    2.0579   -3.0686    0.0000 F   0  0  0  0  0  0  0  0  0
    2.5876   -2.0291    0.0000 C   0  0  0  0  0  0  0  0  0
    1.7806   -1.8575    0.0000 C   0  0  0  0  0  0  0  0  0
    1.5257   -1.0729    0.0000 C   0  0  0  0  0  0  0  0  0
    2.0777   -0.4598    0.0000 C   0  0  0  0  0  0  0  0  0
    2.8847   -0.6313    0.0000 C   0  0  0  0  0  0  0  0  0
    3.1396   -1.4160    0.0000 C   0  0  0  0  0  0  0  0  0
    3.4367   -0.0182    0.0000 C   0  0  0  0  0  0  0  0  0
    4.2437   -0.1898    0.0000 C   0  0  0  0  0  0  0  0  0
    0.7007   -1.0729    0.0000 C   0  0  0  0  0  0  0  0  0
    0.4457   -1.8575    0.0000 N   0  0  0  0  0  0  0  0  0
   -0.3613   -2.0291    0.0000 C   0  0  0  0  0  0  0  0  0
   -0.9133   -1.4160    0.0000 C   0  0  0  0  0  0  0  0  0
   -0.6584   -0.6313    0.0000 N   0  0  0  0  0  0  0  0  0
    0.1486   -0.4598    0.0000 C   0  0  0  0  0  0  0  0  0
    1.1132   -2.3424    0.0000 C   0  0  0  0  0  0  0  0  0
    1.1132   -3.1674    0.0000 O   0  0  0  0  0  0  0  0  0
  1  2  1  0  0  0  0
  2  3  1  0  0  0  0
  2  4  1  0  0  0  0
  2  5  1  0  0  0  0
  5  6  4  0  0  0  0
  5 10  4  0  0  0  0
  6  7  4  0  0  0  0
  6 19  1  0  0  0  0
  7  8  4  0  0  0  0
  7 13  1  0  0  0  0
  8  9  4  0  0  0  0
  9 10  4  0  0  0  0
  9 11  1  0  0  0  0
 11 12  2  0  0  0  0
 13 14  1  0  0  0  0
 13 18  1  0  0  0  0
 14 15  1  0  0  0  0
 14 19  1  0  0  0  0
 15 16  1  0  0  0  0
 16 17  1  0  0  0  0
 17 18  1  0  0  0  0
 19 20  2  0  0  0  0
M  END
>  <Name_Molregno>
370538

>  <5-HT2A>
6.08

>  <5-HT2C>
7.37

$$$$
370543
  Marvin  02231216192D 0   1.00000     0.00000     0

 20 22  0  0  1  0  0  0  0  0999 V2000
    1.5125   -3.4654    0.0000 F   0  0  0  0  0  0  0  0  0
    1.2576   -2.6808    0.0000 C   0  0  0  0  0  0  0  0  0
    2.0422   -2.4258    0.0000 F   0  0  0  0  0  0  0  0  0
    0.4730   -2.9357    0.0000 F   0  0  0  0  0  0  0  0  0
    1.0027   -1.8961    0.0000 C   0  0  0  0  0  0  0  0  0
    0.1957   -1.7246    0.0000 C   0  0  0  0  0  0  0  0  0
   -0.0593   -0.9400    0.0000 C   0  0  0  0  0  0  0  0  0
    0.4928   -0.3269    0.0000 C   0  0  0  0  0  0  0  0  0
    1.2997   -0.4984    0.0000 C   0  0  0  0  0  0  0  0  0
    1.5547   -1.2830    0.0000 C   0  0  0  0  0  0  0  0  0
    1.8518    0.1147    0.0000 C   0  0  0  0  0  0  0  0  0
    2.4038    0.7278    0.0000 C   0  0  0  0  0  0  0  0  0
   -0.8843   -0.9400    0.0000 C   0  0  0  0  0  0  0  0  0
   -1.1392   -1.7246    0.0000 N   0  0  0  0  0  0  0  0  0
   -1.9462   -1.8961    0.0000 C   0  0  0  0  0  0  0  0  0
   -2.4982   -1.2830    0.0000 C   0  0  0  0  0  0  0  0  0
   -2.2433   -0.4984    0.0000 N   0  0  0  0  0  0  0  0  0
   -1.4363   -0.3269    0.0000 C   0  0  0  0  0  0  0  0  0
   -0.4718   -2.2095    0.0000 C   0  0  0  0  0  0  0  0  0
   -0.4718   -3.0345    0.0000 O   0  0  0  0  0  0  0  0  0
  1  2  1  0  0  0  0
  2  3  1  0  0  0  0
  2  4  1  0  0  0  0
  2  5  1  0  0  0  0
  5  6  4  0  0  0  0
  5 10  4  0  0  0  0
  6  7  4  0  0  0  0
  6 19  1  0  0  0  0
  7  8  4  0  0  0  0
  7 13  1  0  0  0  0
  8  9  4  0  0  0  0
  9 10  4  0  0  0  0
  9 11  1  0  0  0  0
 11 12  3  0  0  0  0
 13 14  1  0  0  0  0
 13 18  1  0  0  0  0
 14 15  1  0  0  0  0
 14 19  1  0  0  0  0
 15 16  1  0  0  0  0
 16 17  1  0  0  0  0
 17 18  1  0  0  0  0
 19 20  2  0  0  0  0
M  END
>  <Name_Molregno>
370543

>  <5-HT2A>
5.18

>  <5-HT2C>
6.48

$$$$
370544
  Marvin  02231216192D 0   1.00000     0.00000     0

 21 24  0  0  1  0  0  0  0  0999 V2000
    1.5253   -3.6222    0.0000 F   0  0  0  0  0  0  0  0  0
    1.2704   -2.8375    0.0000 C   0  0  0  0  0  0  0  0  0
    2.0550   -2.5826    0.0000 F   0  0  0  0  0  0  0  0  0
    0.4857   -3.0925    0.0000 F   0  0  0  0  0  0  0  0  0
    1.0154   -2.0529    0.0000 C   0  0  0  0  0  0  0  0  0
    0.2085   -1.8814    0.0000 C   0  0  0  0  0  0  0  0  0
   -0.0465   -1.0968    0.0000 C   0  0  0  0  0  0  0  0  0
    0.5056   -0.4837    0.0000 C   0  0  0  0  0  0  0  0  0
    1.3125   -0.6552    0.0000 C   0  0  0  0  0  0  0  0  0
    1.5675   -1.4398    0.0000 C   0  0  0  0  0  0  0  0  0
    1.8646   -0.0421    0.0000 C   0  0  0  0  0  0  0  0  0
    2.0361    0.7649    0.0000 C   0  0  0  0  0  0  0  0  0
    2.6492    0.2128    0.0000 C   0  0  0  0  0  0  0  0  0
   -0.8715   -1.0968    0.0000 C   0  0  0  0  0  0  0  0  0
   -1.1264   -1.8814    0.0000 N   0  0  0  0  0  0  0  0  0
   -1.9334   -2.0529    0.0000 C   0  0  0  0  0  0  0  0  0
   -2.4854   -1.4398    0.0000 C   0  0  0  0  0  0  0  0  0
   -2.2305   -0.6552    0.0000 N   0  0  0  0  0  0  0  0  0
   -1.4235   -0.4837    0.0000 C   0  0  0  0  0  0  0  0  0
   -0.4590   -2.3663    0.0000 C   0  0  0  0  0  0  0  0  0
   -0.4590   -3.1913    0.0000 O   0  0  0  0  0  0  0  0  0
  1  2  1  0  0  0  0
  2  3  1  0  0  0  0
  2  4  1  0  0  0  0
  2  5  1  0  0  0  0
  5  6  4  0  0  0  0
  5 10  4  0  0  0  0
  6  7  4  0  0  0  0
  6 20  1  0  0  0  0
  7  8  4  0  0  0  0
  7 14  1  0  0  0  0
  8  9  4  0  0  0  0
  9 10  4  0  0  0  0
  9 11  1  0  0  0  0
 11 12  1  0  0  0  0
 11 13  1  0  0  0  0
 12 13  1  0  0  0  0
 14 15  1  0  0  0  0
 14 19  1  0  0  0  0
 15 16  1  0  0  0  0
 15 20  1  0  0  0  0
 16 17  1  0  0  0  0
 17 18  1  0  0  0  0
 18 19  1  0  0  0  0
 20 21  2  0  0  0  0
M  END
>  <Name_Molregno>
370544

>  <5-HT2A>
6.24

>  <5-HT2C>
7.46

$$$$
370545
  Marvin  02231216192D 0   1.00000     0.00000     0

 22 25  0  0  1  0  0  0  0  0999 V2000
    1.5172   -3.6964    0.0000 F   0  0  0  0  0  0  0  0  0
    1.2623   -2.9118    0.0000 C   0  0  0  0  0  0  0  0  0
    2.0469   -2.6568    0.0000 F   0  0  0  0  0  0  0  0  0
    0.4776   -3.1667    0.0000 F   0  0  0  0  0  0  0  0  0
    1.0073   -2.1271    0.0000 C   0  0  0  0  0  0  0  0  0
    0.2003   -1.9556    0.0000 C   0  0  0  0  0  0  0  0  0
   -0.0546   -1.1710    0.0000 C   0  0  0  0  0  0  0  0  0
    0.4974   -0.5579    0.0000 C   0  0  0  0  0  0  0  0  0
    1.3044   -0.7294    0.0000 C   0  0  0  0  0  0  0  0  0
    1.5593   -1.5141    0.0000 C   0  0  0  0  0  0  0  0  0
    1.8564   -0.1163    0.0000 C   0  0  0  0  0  0  0  0  0
    2.5849    0.2710    0.0000 C   0  0  0  0  0  0  0  0  0
    2.5561   -0.5535    0.0000 C   0  0  0  0  0  0  0  0  0
    1.3485    0.5338    0.0000 C   0  0  0  0  0  0  0  0  0
   -0.8796   -1.1710    0.0000 C   0  0  0  0  0  0  0  0  0
   -1.1345   -1.9556    0.0000 N   0  0  0  0  0  0  0  0  0
   -1.9415   -2.1271    0.0000 C   0  0  0  0  0  0  0  0  0
   -2.4935   -1.5141    0.0000 C   0  0  0  0  0  0  0  0  0
   -2.2386   -0.7294    0.0000 N   0  0  0  0  0  0  0  0  0
   -1.4316   -0.5579    0.0000 C   0  0  0  0  0  0  0  0  0
   -0.4671   -2.4405    0.0000 C   0  0  0  0  0  0  0  0  0
   -0.4671   -3.2655    0.0000 O   0  0  0  0  0  0  0  0  0
  1  2  1  0  0  0  0
  2  3  1  0  0  0  0
  2  4  1  0  0  0  0
  2  5  1  0  0  0  0
  5  6  4  0  0  0  0
  5 10  4  0  0  0  0
  6  7  4  0  0  0  0
  6 21  1  0  0  0  0
  7  8  4  0  0  0  0
  7 15  1  0  0  0  0
  8  9  4  0  0  0  0
  9 10  4  0  0  0  0
  9 11  1  0  0  0  0
 11 12  1  0  0  0  0
 11 13  1  0  0  0  0
 11 14  1  0  0  0  0
 12 13  1  0  0  0  0
 15 16  1  0  0  0  0
 15 20  1  0  0  0  0
 16 17  1  0  0  0  0
 16 21  1  0  0  0  0
 17 18  1  0  0  0  0
 18 19  1  0  0  0  0
 19 20  1  0  0  0  0
 21 22  2  0  0  0  0
M  END
>  <Name_Molregno>
370545

>  <5-HT2A>
5.64

>  <5-HT2C>
7.47

$$$$
370565
  Marvin  02231216192D 0   1.00000     0.00000     0

 19 21  0  0  1  0  0  0  0  0999 V2000
    0.3480   -2.4294    0.0000 F   0  0  0  0  0  0  0  0  0
    0.0931   -1.6448    0.0000 C   0  0  0  0  0  0  0  0  0
    0.8777   -1.3898    0.0000 F   0  0  0  0  0  0  0  0  0
   -0.6915   -1.8997    0.0000 F   0  0  0  0  0  0  0  0  0
   -0.1618   -0.8602    0.0000 C   0  0  0  0  0  0  0  0  0
   -0.9688   -0.6886    0.0000 C   0  0  0  0  0  0  0  0  0
   -1.2237    0.0960    0.0000 C   0  0  0  0  0  0  0  0  0
   -2.0487    0.0960    0.0000 C   0  0  0  0  0  0  0  0  0
   -2.3037   -0.6886    0.0000 N   0  0  0  0  0  0  0  0  0
   -3.1107   -0.8602    0.0000 C   0  0  0  0  0  0  0  0  0
   -3.6627   -0.2471    0.0000 C   0  0  0  0  0  0  0  0  0
   -3.4077    0.5376    0.0000 N   0  0  0  0  0  0  0  0  0
   -2.6008    0.7091    0.0000 C   0  0  0  0  0  0  0  0  0
   -3.9598    1.1507    0.0000 C   0  0  0  0  0  0  0  0  0
   -1.6362   -1.1736    0.0000 C   0  0  0  0  0  0  0  0  0
   -1.6362   -1.9986    0.0000 O   0  0  0  0  0  0  0  0  0
   -0.6717    0.7091    0.0000 C   0  0  0  0  0  0  0  0  0
    0.1353    0.5376    0.0000 C   0  0  0  0  0  0  0  0  0
    0.3902   -0.2471    0.0000 C   0  0  0  0  0  0  0  0  0
  1  2  1  0  0  0  0
  2  3  1  0  0  0  0
  2  4  1  0  0  0  0
  2  5  1  0  0  0  0
  5  6  4  0  0  0  0
  5 19  4  0  0  0  0
  6  7  4  0  0  0  0
  6 15  1  0  0  0  0
  7  8  1  0  0  0  0
  7 17  4  0  0  0  0
  8  9  1  0  0  0  0
  8 13  1  0  0  0  0
  9 10  1  0  0  0  0
  9 15  1  0  0  0  0
 10 11  1  0  0  0  0
 11 12  1  0  0  0  0
 12 13  1  0  0  0  0
 12 14  1  0  0  0  0
 15 16  2  0  0  0  0
 17 18  4  0  0  0  0
 18 19  4  0  0  0  0
M  END
>  <Name_Molregno>
370565

>  <5-HT2A>
5.39

>  <5-HT2C>
6.37

$$$$
370566
  Marvin  02231216192D 0   1.00000     0.00000     0

 20 22  0  0  1  0  0  0  0  0999 V2000
    0.4385   -2.1898    0.0000 F   0  0  0  0  0  0  0  0  0
    0.1835   -1.4052    0.0000 C   0  0  0  0  0  0  0  0  0
    0.9682   -1.1503    0.0000 F   0  0  0  0  0  0  0  0  0
   -0.6011   -1.6601    0.0000 F   0  0  0  0  0  0  0  0  0
   -0.0714   -0.6206    0.0000 C   0  0  0  0  0  0  0  0  0
   -0.8784   -0.4490    0.0000 C   0  0  0  0  0  0  0  0  0
   -1.1333    0.3356    0.0000 C   0  0  0  0  0  0  0  0  0
   -1.9583    0.3356    0.0000 C   0  0  0  0  0  0  0  0  0
   -2.2132   -0.4490    0.0000 N   0  0  0  0  0  0  0  0  0
   -3.0202   -0.6206    0.0000 C   0  0  0  0  0  0  0  0  0
   -3.5722   -0.0075    0.0000 C   0  0  0  0  0  0  0  0  0
   -3.3173    0.7771    0.0000 N   0  0  0  0  0  0  0  0  0
   -2.5103    0.9487    0.0000 C   0  0  0  0  0  0  0  0  0
   -4.2042   -0.5378    0.0000 C   0  0  0  0  0  0  0  0  0
   -4.3653    0.2199    0.0000 C   0  0  0  0  0  0  0  0  0
   -1.5458   -0.9340    0.0000 C   0  0  0  0  0  0  0  0  0
   -1.5458   -1.7590    0.0000 O   0  0  0  0  0  0  0  0  0
   -0.5813    0.9487    0.0000 C   0  0  0  0  0  0  0  0  0
    0.2257    0.7771    0.0000 C   0  0  0  0  0  0  0  0  0
    0.4806   -0.0075    0.0000 C   0  0  0  0  0  0  0  0  0
  1  2  1  0  0  0  0
  2  3  1  0  0  0  0
  2  4  1  0  0  0  0
  2  5  1  0  0  0  0
  5  6  4  0  0  0  0
  5 20  4  0  0  0  0
  6  7  4  0  0  0  0
  6 16  1  0  0  0  0
  7  8  1  0  0  0  0
  7 18  4  0  0  0  0
  8  9  1  0  0  0  0
  8 13  1  0  0  0  0
  9 10  1  0  0  0  0
  9 16  1  0  0  0  0
 10 11  1  0  0  0  0
 11 12  1  0  0  0  0
 11 14  1  0  0  0  0
 11 15  1  0  0  0  0
 12 13  1  0  0  0  0
 16 17  2  0  0  0  0
 18 19  4  0  0  0  0
 19 20  4  0  0  0  0
M  END
>  <Name_Molregno>
370566

>  <5-HT2A>
5

>  <5-HT2C>
5.84

$$$$
370567
  Marvin  02231216192D 0   1.00000     0.00000     0

 19 21  0  0  1  0  0  0  0  0999 V2000
    4.0572   -1.3403    0.0000 F   0  0  0  0  0  0  0  0  0
    3.8023   -0.5556    0.0000 C   0  0  0  0  0  0  0  0  0
    4.5869   -0.3007    0.0000 F   0  0  0  0  0  0  0  0  0
    3.0177   -0.8106    0.0000 F   0  0  0  0  0  0  0  0  0
    3.5474    0.2290    0.0000 C   0  0  0  0  0  0  0  0  0
    2.7404    0.4005    0.0000 C   0  0  0  0  0  0  0  0  0
    2.4855    1.1851    0.0000 C   0  0  0  0  0  0  0  0  0
    1.6605    1.1851    0.0000 C   0  0  0  0  0  0  0  0  0
    1.4055    0.4005    0.0000 N   0  0  0  0  0  0  0  0  0
    0.5985    0.2290    0.0000 C   0  0  0  0  0  0  0  0  0
    0.0465    0.8421    0.0000 C   0  0  0  0  0  0  0  0  0
    0.3014    1.6267    0.0000 N   0  0  0  0  0  0  0  0  0
    1.1084    1.7982    0.0000 C   0  0  0  0  0  0  0  0  0
   -0.7605    0.6706    0.0000 C   0  0  0  0  0  0  0  0  0
    2.0730   -0.0844    0.0000 C   0  0  0  0  0  0  0  0  0
    2.0730   -0.9094    0.0000 O   0  0  0  0  0  0  0  0  0
    3.0375    1.7982    0.0000 C   0  0  0  0  0  0  0  0  0
    3.8445    1.6267    0.0000 C   0  0  0  0  0  0  0  0  0
    4.0994    0.8421    0.0000 C   0  0  0  0  0  0  0  0  0
  1  2  1  0  0  0  0
  2  3  1  0  0  0  0
  2  4  1  0  0  0  0
  2  5  1  0  0  0  0
  5  6  4  0  0  0  0
  5 19  4  0  0  0  0
  6  7  4  0  0  0  0
  6 15  1  0  0  0  0
  7  8  1  0  0  0  0
  7 17  4  0  0  0  0
  8  9  1  0  0  0  0
  8 13  1  0  0  0  0
  9 10  1  0  0  0  0
  9 15  1  0  0  0  0
 10 11  1  0  0  0  0
 11 12  1  0  0  0  0
 11 14  1  0  0  0  0
 12 13  1  0  0  0  0
 15 16  2  0  0  0  0
 17 18  4  0  0  0  0
 18 19  4  0  0  0  0
M  END
>  <Name_Molregno>
370567

>  <5-HT2A>
5

>  <5-HT2C>
6.46

$$$$
370574
  Marvin  02231216192D 0   1.00000     0.00000     0

 19 21  0  0  1  0  0  0  0  0999 V2000
    0.4310   -2.1851    0.0000 F   0  0  0  0  0  0  0  0  0
    0.1761   -1.4004    0.0000 C   0  0  0  0  0  0  0  0  0
    0.9607   -1.1455    0.0000 F   0  0  0  0  0  0  0  0  0
   -0.6085   -1.6554    0.0000 F   0  0  0  0  0  0  0  0  0
   -0.0789   -0.6158    0.0000 C   0  0  0  0  0  0  0  0  0
   -0.8858   -0.4443    0.0000 C   0  0  0  0  0  0  0  0  0
   -1.1408    0.3403    0.0000 C   0  0  0  0  0  0  0  0  0
   -1.9658    0.3403    0.0000 C   0  0  0  0  0  0  0  0  0
   -2.2207   -0.4443    0.0000 N   0  0  0  0  0  0  0  0  0
   -3.0277   -0.6158    0.0000 C   0  0  0  0  0  0  0  0  0
   -3.5797   -0.0027    0.0000 C   0  0  0  0  0  0  0  0  0
   -3.3248    0.7819    0.0000 N   0  0  0  0  0  0  0  0  0
   -2.5178    0.9534    0.0000 C   0  0  0  0  0  0  0  0  0
   -3.2826   -1.4004    0.0000 C   0  0  0  0  0  0  0  0  0
   -1.5533   -0.9292    0.0000 C   0  0  0  0  0  0  0  0  0
   -1.5533   -1.7542    0.0000 O   0  0  0  0  0  0  0  0  0
   -0.5887    0.9534    0.0000 C   0  0  0  0  0  0  0  0  0
    0.2182    0.7819    0.0000 C   0  0  0  0  0  0  0  0  0
    0.4732   -0.0027    0.0000 C   0  0  0  0  0  0  0  0  0
  1  2  1  0  0  0  0
  2  3  1  0  0  0  0
  2  4  1  0  0  0  0
  2  5  1  0  0  0  0
  5  6  4  0  0  0  0
  5 19  4  0  0  0  0
  6  7  4  0  0  0  0
  6 15  1  0  0  0  0
  7  8  1  0  0  0  0
  7 17  4  0  0  0  0
  8  9  1  0  0  0  0
  8 13  1  0  0  0  0
  9 10  1  0  0  0  0
  9 15  1  0  0  0  0
 10 11  1  0  0  0  0
 10 14  1  0  0  0  0
 11 12  1  0  0  0  0
 12 13  1  0  0  0  0
 15 16  2  0  0  0  0
 17 18  4  0  0  0  0
 18 19  4  0  0  0  0
M  END
>  <Name_Molregno>
370574

>  <5-HT2A>
6.68

>  <5-HT2C>
7.39

$$$$
370581
  Marvin  02231216192D 0   1.00000     0.00000     0

 21 23  0  0  1  0  0  0  0  0999 V2000
    1.4257   -2.8733    0.0000 F   0  0  0  0  0  0  0  0  0
    1.1708   -2.0887    0.0000 C   0  0  0  0  0  0  0  0  0
    1.9554   -1.8338    0.0000 F   0  0  0  0  0  0  0  0  0
    0.3862   -2.3437    0.0000 F   0  0  0  0  0  0  0  0  0
    0.9159   -1.3041    0.0000 C   0  0  0  0  0  0  0  0  0
    0.1089   -1.1326    0.0000 C   0  0  0  0  0  0  0  0  0
   -0.1460   -0.3480    0.0000 C   0  0  0  0  0  0  0  0  0
   -0.9710   -0.3480    0.0000 C   0  0  0  0  0  0  0  0  0
   -1.2260   -1.1326    0.0000 N   0  0  0  0  0  0  0  0  0
   -2.0330   -1.3041    0.0000 C   0  0  0  0  0  0  0  0  0
   -2.5850   -0.6910    0.0000 C   0  0  0  0  0  0  0  0  0
   -2.3301    0.0936    0.0000 N   0  0  0  0  0  0  0  0  0
   -1.5231    0.2651    0.0000 C   0  0  0  0  0  0  0  0  0
   -2.2879   -2.0887    0.0000 C   0  0  0  0  0  0  0  0  0
   -1.7359   -2.7018    0.0000 C   0  0  0  0  0  0  0  0  0
   -3.0949   -2.2603    0.0000 C   0  0  0  0  0  0  0  0  0
   -0.5585   -1.6175    0.0000 C   0  0  0  0  0  0  0  0  0
   -0.5585   -2.4425    0.0000 O   0  0  0  0  0  0  0  0  0
    0.4060    0.2651    0.0000 C   0  0  0  0  0  0  0  0  0
    1.2130    0.0936    0.0000 C   0  0  0  0  0  0  0  0  0
    1.4679   -0.6910    0.0000 C   0  0  0  0  0  0  0  0  0
  1  2  1  0  0  0  0
  2  3  1  0  0  0  0
  2  4  1  0  0  0  0
  2  5  1  0  0  0  0
  5  6  4  0  0  0  0
  5 21  4  0  0  0  0
  6  7  4  0  0  0  0
  6 17  1  0  0  0  0
  7  8  1  0  0  0  0
  7 19  4  0  0  0  0
  8  9  1  0  0  0  0
  8 13  1  0  0  0  0
  9 10  1  0  0  0  0
  9 17  1  0  0  0  0
 10 11  1  0  0  0  0
 10 14  1  0  0  0  0
 11 12  1  0  0  0  0
 12 13  1  0  0  0  0
 14 15  1  0  0  0  0
 14 16  1  0  0  0  0
 17 18  2  0  0  0  0
 19 20  4  0  0  0  0
 20 21  4  0  0  0  0
M  END
>  <Name_Molregno>
370581

>  <5-HT2A>
7.42

>  <5-HT2C>
7.89

$$$$
370582
  Marvin  02231216192D 0   1.00000     0.00000     0

 19 21  0  0  1  0  0  0  0  0999 V2000
   -0.4992   -2.6813    0.0000 F   0  0  0  0  0  0  0  0  0
   -0.7542   -1.8967    0.0000 C   0  0  0  0  0  0  0  0  0
    0.0305   -1.6417    0.0000 F   0  0  0  0  0  0  0  0  0
   -1.5388   -2.1516    0.0000 F   0  0  0  0  0  0  0  0  0
   -1.0091   -1.1121    0.0000 C   0  0  0  0  0  0  0  0  0
   -1.8161   -0.9405    0.0000 C   0  0  0  0  0  0  0  0  0
   -2.0710   -0.1559    0.0000 C   0  0  0  0  0  0  0  0  0
   -2.8960   -0.1559    0.0000 C   0  0  0  0  0  0  0  0  0
   -3.1509   -0.9405    0.0000 N   0  0  0  0  0  0  0  0  0
   -3.9579   -1.1121    0.0000 C   0  0  0  0  0  0  0  0  0
   -4.5100   -0.4990    0.0000 C   0  0  0  0  0  0  0  0  0
   -4.2550    0.2857    0.0000 N   0  0  0  0  0  0  0  0  0
   -3.4480    0.4572    0.0000 C   0  0  0  0  0  0  0  0  0
   -3.1931    1.2418    0.0000 C   0  0  0  0  0  0  0  0  0
   -2.4835   -1.4255    0.0000 C   0  0  0  0  0  0  0  0  0
   -2.4835   -2.2505    0.0000 O   0  0  0  0  0  0  0  0  0
   -1.5190    0.4572    0.0000 C   0  0  0  0  0  0  0  0  0
   -0.7120    0.2857    0.0000 C   0  0  0  0  0  0  0  0  0
   -0.4571   -0.4990    0.0000 C   0  0  0  0  0  0  0  0  0
  1  2  1  0  0  0  0
  2  3  1  0  0  0  0
  2  4  1  0  0  0  0
  2  5  1  0  0  0  0
  5  6  4  0  0  0  0
  5 19  4  0  0  0  0
  6  7  4  0  0  0  0
  6 15  1  0  0  0  0
  7  8  1  0  0  0  0
  7 17  4  0  0  0  0
  8  9  1  0  0  0  0
  8 13  1  0  0  0  0
  9 10  1  0  0  0  0
  9 15  1  0  0  0  0
 10 11  1  0  0  0  0
 11 12  1  0  0  0  0
 12 13  1  0  0  0  0
 13 14  1  0  0  0  0
 15 16  2  0  0  0  0
 17 18  4  0  0  0  0
 18 19  4  0  0  0  0
M  END
>  <Name_Molregno>
370582

>  <5-HT2A>
6.91

>  <5-HT2C>
7.54

$$$$
370583
  Marvin  02231216192D 0   1.00000     0.00000     0

 20 22  0  0  1  0  0  0  0  0999 V2000
    3.2021   -2.6832    0.0000 F   0  0  0  0  0  0  0  0  0
    2.9471   -1.8986    0.0000 C   0  0  0  0  0  0  0  0  0
    3.7317   -1.6436    0.0000 F   0  0  0  0  0  0  0  0  0
    2.1625   -2.1535    0.0000 F   0  0  0  0  0  0  0  0  0
    2.6922   -1.1140    0.0000 C   0  0  0  0  0  0  0  0  0
    1.8852   -0.9424    0.0000 C   0  0  0  0  0  0  0  0  0
    1.6303   -0.1578    0.0000 C   0  0  0  0  0  0  0  0  0
    0.8053   -0.1578    0.0000 C   0  0  0  0  0  0  0  0  0
    0.5503   -0.9424    0.0000 N   0  0  0  0  0  0  0  0  0
   -0.2566   -1.1140    0.0000 C   0  0  0  0  0  0  0  0  0
   -0.8087   -0.5009    0.0000 C   0  0  0  0  0  0  0  0  0
   -0.5537    0.2838    0.0000 N   0  0  0  0  0  0  0  0  0
    0.2532    0.4553    0.0000 C   0  0  0  0  0  0  0  0  0
    0.5082    1.2399    0.0000 C   0  0  0  0  0  0  0  0  0
   -0.0439    1.8530    0.0000 C   0  0  0  0  0  0  0  0  0
    1.2178   -1.4273    0.0000 C   0  0  0  0  0  0  0  0  0
    1.2178   -2.2523    0.0000 O   0  0  0  0  0  0  0  0  0
    2.1823    0.4553    0.0000 C   0  0  0  0  0  0  0  0  0
    2.9893    0.2838    0.0000 C   0  0  0  0  0  0  0  0  0
    3.2442   -0.5009    0.0000 C   0  0  0  0  0  0  0  0  0
  1  2  1  0  0  0  0
  2  3  1  0  0  0  0
  2  4  1  0  0  0  0
  2  5  1  0  0  0  0
  5  6  4  0  0  0  0
  5 20  4  0  0  0  0
  6  7  4  0  0  0  0
  6 16  1  0  0  0  0
  7  8  1  0  0  0  0
  7 18  4  0  0  0  0
  8  9  1  0  0  0  0
  8 13  1  0  0  0  0
  9 10  1  0  0  0  0
  9 16  1  0  0  0  0
 10 11  1  0  0  0  0
 11 12  1  0  0  0  0
 12 13  1  0  0  0  0
 13 14  1  0  0  0  0
 14 15  1  0  0  0  0
 16 17  2  0  0  0  0
 18 19  4  0  0  0  0
 19 20  4  0  0  0  0
M  END
>  <Name_Molregno>
370583

>  <5-HT2A>
7.04

>  <5-HT2C>
6.47

$$$$
370591
  Marvin  02231216192D 0   1.00000     0.00000     0

 17 19  0  0  1  0  0  0  0  0999 V2000
    0.5196   -3.7217    0.0000 Cl  0  0  0  0  0  0  0  0  0
    0.7745   -2.9371    0.0000 C   0  0  0  0  0  0  0  0  0
    0.2225   -2.3240    0.0000 C   0  0  0  0  0  0  0  0  0
    0.4774   -1.5393    0.0000 C   0  0  0  0  0  0  0  0  0
   -0.1900   -1.0544    0.0000 C   0  0  0  0  0  0  0  0  0
   -0.1900   -0.2294    0.0000 O   0  0  0  0  0  0  0  0  0
   -0.8574   -1.5393    0.0000 N   0  0  0  0  0  0  0  0  0
   -0.6025   -2.3240    0.0000 C   0  0  0  0  0  0  0  0  0
   -1.1545   -2.9371    0.0000 C   0  0  0  0  0  0  0  0  0
   -1.9615   -2.7655    0.0000 N   0  0  0  0  0  0  0  0  0
   -2.2164   -1.9809    0.0000 C   0  0  0  0  0  0  0  0  0
   -1.6644   -1.3678    0.0000 C   0  0  0  0  0  0  0  0  0
    1.2844   -1.3678    0.0000 C   0  0  0  0  0  0  0  0  0
    1.5393   -0.5832    0.0000 O   0  0  0  0  0  0  0  0  0
    0.9873    0.0299    0.0000 C   0  0  0  0  0  0  0  0  0
    1.8364   -1.9809    0.0000 C   0  0  0  0  0  0  0  0  0
    1.5815   -2.7655    0.0000 C   0  0  0  0  0  0  0  0  0
  1  2  1  0  0  0  0
  2  3  4  0  0  0  0
  2 17  4  0  0  0  0
  3  4  4  0  0  0  0
  3  8  1  0  0  0  0
  4  5  1  0  0  0  0
  4 13  4  0  0  0  0
  5  6  2  0  0  0  0
  5  7  1  0  0  0  0
  7  8  1  0  0  0  0
  7 12  1  0  0  0  0
  8  9  1  0  0  0  0
  9 10  1  0  0  0  0
 10 11  1  0  0  0  0
 11 12  1  0  0  0  0
 13 14  1  0  0  0  0
 13 16  4  0  0  0  0
 14 15  1  0  0  0  0
 16 17  4  0  0  0  0
M  END
>  <Name_Molregno>
370591

>  <5-HT2A>
5

>  <5-HT2C>
5.25

$$$$
370606
  Marvin  02231216192D 0   1.00000     0.00000     0

 16 18  0  0  1  0  0  0  0  0999 V2000
    3.3503   -2.3915    0.0000 Cl  0  0  0  0  0  0  0  0  0
    3.0953   -1.6069    0.0000 C   0  0  0  0  0  0  0  0  0
    2.2884   -1.4353    0.0000 C   0  0  0  0  0  0  0  0  0
    2.0334   -0.6507    0.0000 C   0  0  0  0  0  0  0  0  0
    1.2084   -0.6507    0.0000 C   0  0  0  0  0  0  0  0  0
    0.9535   -1.4353    0.0000 N   0  0  0  0  0  0  0  0  0
    0.1465   -1.6069    0.0000 C   0  0  0  0  0  0  0  0  0
   -0.4055   -0.9938    0.0000 C   0  0  0  0  0  0  0  0  0
   -0.1506   -0.2092    0.0000 N   0  0  0  0  0  0  0  0  0
    0.6564   -0.0376    0.0000 C   0  0  0  0  0  0  0  0  0
    1.6209   -1.9203    0.0000 C   0  0  0  0  0  0  0  0  0
    1.6209   -2.7453    0.0000 O   0  0  0  0  0  0  0  0  0
    2.5854   -0.0376    0.0000 C   0  0  0  0  0  0  0  0  0
    3.3924   -0.2092    0.0000 C   0  0  0  0  0  0  0  0  0
    3.6474   -0.9938    0.0000 C   0  0  0  0  0  0  0  0  0
    2.3305    0.7470    0.0000 C   0  0  0  0  0  0  0  0  0
  1  2  1  0  0  0  0
  2  3  4  0  0  0  0
  2 15  4  0  0  0  0
  3  4  4  0  0  0  0
  3 11  1  0  0  0  0
  4  5  1  0  0  0  0
  4 13  4  0  0  0  0
  5  6  1  0  0  0  0
  5 10  1  0  0  0  0
  6  7  1  0  0  0  0
  6 11  1  0  0  0  0
  7  8  1  0  0  0  0
  8  9  1  0  0  0  0
  9 10  1  0  0  0  0
 11 12  2  0  0  0  0
 13 14  4  0  0  0  0
 13 16  1  0  0  0  0
 14 15  4  0  0  0  0
M  END
>  <Name_Molregno>
370606

>  <5-HT2A>
5.4

>  <5-HT2C>
6.03

$$$$
370607
  Marvin  02231216192D 0   1.00000     0.00000     0

 17 19  0  0  1  0  0  0  0  0999 V2000
    3.3454   -2.6271    0.0000 Cl  0  0  0  0  0  0  0  0  0
    3.0905   -1.8424    0.0000 C   0  0  0  0  0  0  0  0  0
    2.2835   -1.6709    0.0000 C   0  0  0  0  0  0  0  0  0
    2.0286   -0.8863    0.0000 C   0  0  0  0  0  0  0  0  0
    1.2036   -0.8863    0.0000 C   0  0  0  0  0  0  0  0  0
    0.9487   -1.6709    0.0000 N   0  0  0  0  0  0  0  0  0
    0.1417   -1.8424    0.0000 C   0  0  0  0  0  0  0  0  0
   -0.4103   -1.2293    0.0000 C   0  0  0  0  0  0  0  0  0
   -0.1554   -0.4447    0.0000 N   0  0  0  0  0  0  0  0  0
    0.6516   -0.2732    0.0000 C   0  0  0  0  0  0  0  0  0
    1.6161   -2.1558    0.0000 C   0  0  0  0  0  0  0  0  0
    1.6161   -2.9808    0.0000 O   0  0  0  0  0  0  0  0  0
    2.5806   -0.2732    0.0000 C   0  0  0  0  0  0  0  0  0
    3.3876   -0.4447    0.0000 C   0  0  0  0  0  0  0  0  0
    3.6425   -1.2293    0.0000 C   0  0  0  0  0  0  0  0  0
    2.3257    0.5114    0.0000 C   0  0  0  0  0  0  0  0  0
    1.5187    0.6829    0.0000 C   0  0  0  0  0  0  0  0  0
  1  2  1  0  0  0  0
  2  3  4  0  0  0  0
  2 15  4  0  0  0  0
  3  4  4  0  0  0  0
  3 11  1  0  0  0  0
  4  5  1  0  0  0  0
  4 13  4  0  0  0  0
  5  6  1  0  0  0  0
  5 10  1  0  0  0  0
  6  7  1  0  0  0  0
  6 11  1  0  0  0  0
  7  8  1  0  0  0  0
  8  9  1  0  0  0  0
  9 10  1  0  0  0  0
 11 12  2  0  0  0  0
 13 14  4  0  0  0  0
 13 16  1  0  0  0  0
 14 15  4  0  0  0  0
 16 17  1  0  0  0  0
M  END
>  <Name_Molregno>
370607

>  <5-HT2A>
5.62

>  <5-HT2C>
6.37

$$$$
370612
  Marvin  02231216192D 0   1.00000     0.00000     0

 17 19  0  0  1  0  0  0  0  0999 V2000
    3.3454   -2.6271    0.0000 Cl  0  0  0  0  0  0  0  0  0
    3.0905   -1.8424    0.0000 C   0  0  0  0  0  0  0  0  0
    2.2835   -1.6709    0.0000 C   0  0  0  0  0  0  0  0  0
    2.0286   -0.8863    0.0000 C   0  0  0  0  0  0  0  0  0
    1.2036   -0.8863    0.0000 C   0  0  0  0  0  0  0  0  0
    0.9487   -1.6709    0.0000 N   0  0  0  0  0  0  0  0  0
    0.1417   -1.8424    0.0000 C   0  0  0  0  0  0  0  0  0
   -0.4103   -1.2293    0.0000 C   0  0  0  0  0  0  0  0  0
   -0.1554   -0.4447    0.0000 N   0  0  0  0  0  0  0  0  0
    0.6516   -0.2732    0.0000 C   0  0  0  0  0  0  0  0  0
    1.6161   -2.1558    0.0000 C   0  0  0  0  0  0  0  0  0
    1.6161   -2.9808    0.0000 O   0  0  0  0  0  0  0  0  0
    2.5806   -0.2732    0.0000 C   0  0  0  0  0  0  0  0  0
    2.3257    0.5114    0.0000 O   0  0  0  0  0  0  0  0  0
    1.5187    0.6829    0.0000 C   0  0  0  0  0  0  0  0  0
    3.3876   -0.4447    0.0000 C   0  0  0  0  0  0  0  0  0
    3.6425   -1.2293    0.0000 C   0  0  0  0  0  0  0  0  0
  1  2  1  0  0  0  0
  2  3  4  0  0  0  0
  2 17  4  0  0  0  0
  3  4  4  0  0  0  0
  3 11  1  0  0  0  0
  4  5  1  0  0  0  0
  4 13  4  0  0  0  0
  5  6  1  0  0  0  0
  5 10  1  0  0  0  0
  6  7  1  0  0  0  0
  6 11  1  0  0  0  0
  7  8  1  0  0  0  0
  8  9  1  0  0  0  0
  9 10  1  0  0  0  0
 11 12  2  0  0  0  0
 13 14  1  0  0  0  0
 13 16  4  0  0  0  0
 14 15  1  0  0  0  0
 16 17  4  0  0  0  0
M  END
>  <Name_Molregno>
370612

>  <5-HT2A>
7.07

>  <5-HT2C>
7.23

$$$$
370613
  Marvin  02231216192D 0   1.00000     0.00000     0

 19 21  0  0  1  0  0  0  0  0999 V2000
    0.1510   -3.9979    0.0000 Cl  0  0  0  0  0  0  0  0  0
    0.4059   -3.2133    0.0000 C   0  0  0  0  0  0  0  0  0
   -0.1461   -2.6002    0.0000 C   0  0  0  0  0  0  0  0  0
    0.1088   -1.8156    0.0000 C   0  0  0  0  0  0  0  0  0
    0.9158   -1.6441    0.0000 C   0  0  0  0  0  0  0  0  0
    1.4678   -2.2572    0.0000 C   0  0  0  0  0  0  0  0  0
    1.2129   -3.0418    0.0000 C   0  0  0  0  0  0  0  0  0
    1.1707   -0.8594    0.0000 C   0  0  0  0  0  0  0  0  0
    1.4257   -0.0748    0.0000 F   0  0  0  0  0  0  0  0  0
    0.3861   -0.6045    0.0000 F   0  0  0  0  0  0  0  0  0
    1.9553   -1.1144    0.0000 F   0  0  0  0  0  0  0  0  0
   -0.5586   -1.3307    0.0000 C   0  0  0  0  0  0  0  0  0
   -0.5586   -0.5057    0.0000 O   0  0  0  0  0  0  0  0  0
   -1.2261   -1.8156    0.0000 N   0  0  0  0  0  0  0  0  0
   -0.9711   -2.6002    0.0000 C   0  0  0  0  0  0  0  0  0
   -1.5232   -3.2133    0.0000 C   0  0  0  0  0  0  0  0  0
   -2.3301   -3.0418    0.0000 N   0  0  0  0  0  0  0  0  0
   -2.5851   -2.2572    0.0000 C   0  0  0  0  0  0  0  0  0
   -2.0330   -1.6441    0.0000 C   0  0  0  0  0  0  0  0  0
  1  2  1  0  0  0  0
  2  3  4  0  0  0  0
  2  7  4  0  0  0  0
  3  4  4  0  0  0  0
  3 15  1  0  0  0  0
  4  5  4  0  0  0  0
  4 12  1  0  0  0  0
  5  6  4  0  0  0  0
  5  8  1  0  0  0  0
  6  7  4  0  0  0  0
  8  9  1  0  0  0  0
  8 10  1  0  0  0  0
  8 11  1  0  0  0  0
 12 13  2  0  0  0  0
 12 14  1  0  0  0  0
 14 15  1  0  0  0  0
 14 19  1  0  0  0  0
 15 16  1  0  0  0  0
 16 17  1  0  0  0  0
 17 18  1  0  0  0  0
 18 19  1  0  0  0  0
M  END
>  <Name_Molregno>
370613

>  <5-HT2A>
5.83

>  <5-HT2C>
5.96

$$$$
370614
  Marvin  02231216192D 0   1.00000     0.00000     0

 16 18  0  0  1  0  0  0  0  0999 V2000
    3.0748   -2.1710    0.0000 Cl  0  0  0  0  0  0  0  0  0
    2.8198   -1.3864    0.0000 C   0  0  0  0  0  0  0  0  0
    2.0128   -1.2149    0.0000 C   0  0  0  0  0  0  0  0  0
    1.7579   -0.4303    0.0000 C   0  0  0  0  0  0  0  0  0
    0.9329   -0.4303    0.0000 C   0  0  0  0  0  0  0  0  0
    0.6780   -1.2149    0.0000 N   0  0  0  0  0  0  0  0  0
   -0.1290   -1.3864    0.0000 C   0  0  0  0  0  0  0  0  0
   -0.6810   -0.7733    0.0000 C   0  0  0  0  0  0  0  0  0
   -0.4261    0.0113    0.0000 N   0  0  0  0  0  0  0  0  0
    0.3809    0.1828    0.0000 C   0  0  0  0  0  0  0  0  0
    1.3454   -1.6998    0.0000 C   0  0  0  0  0  0  0  0  0
    1.3454   -2.5248    0.0000 O   0  0  0  0  0  0  0  0  0
    2.3099    0.1828    0.0000 C   0  0  0  0  0  0  0  0  0
    3.1169    0.0113    0.0000 C   0  0  0  0  0  0  0  0  0
    3.3719   -0.7733    0.0000 C   0  0  0  0  0  0  0  0  0
    4.1788   -0.9448    0.0000 Cl  0  0  0  0  0  0  0  0  0
  1  2  1  0  0  0  0
  2  3  4  0  0  0  0
  2 15  4  0  0  0  0
  3  4  4  0  0  0  0
  3 11  1  0  0  0  0
  4  5  1  0  0  0  0
  4 13  4  0  0  0  0
  5  6  1  0  0  0  0
  5 10  1  0  0  0  0
  6  7  1  0  0  0  0
  6 11  1  0  0  0  0
  7  8  1  0  0  0  0
  8  9  1  0  0  0  0
  9 10  1  0  0  0  0
 11 12  2  0  0  0  0
 13 14  4  0  0  0  0
 14 15  4  0  0  0  0
 15 16  1  0  0  0  0
M  END
>  <Name_Molregno>
370614

>  <5-HT2A>
6.42

>  <5-HT2C>
6.97

$$$$
370620
  Marvin  02231216192D 0   1.00000     0.00000     0

 17 19  0  0  1  0  0  0  0  0999 V2000
    4.7897    0.4509    0.0000 Cl  0  0  0  0  0  0  0  0  0
    3.9827    0.2794    0.0000 C   0  0  0  0  0  0  0  0  0
    3.7278   -0.5052    0.0000 C   0  0  0  0  0  0  0  0  0
    2.9208   -0.6767    0.0000 C   0  0  0  0  0  0  0  0  0
    2.3688   -0.0636    0.0000 C   0  0  0  0  0  0  0  0  0
    2.6237    0.7210    0.0000 C   0  0  0  0  0  0  0  0  0
    3.4307    0.8925    0.0000 C   0  0  0  0  0  0  0  0  0
    3.6856    1.6771    0.0000 O   0  0  0  0  0  0  0  0  0
    3.1336    2.2902    0.0000 C   0  0  0  0  0  0  0  0  0
    1.9563    1.2059    0.0000 C   0  0  0  0  0  0  0  0  0
    1.9563    2.0309    0.0000 O   0  0  0  0  0  0  0  0  0
    1.2888    0.7210    0.0000 N   0  0  0  0  0  0  0  0  0
    1.5438   -0.0636    0.0000 C   0  0  0  0  0  0  0  0  0
    0.9917   -0.6767    0.0000 C   0  0  0  0  0  0  0  0  0
    0.1848   -0.5052    0.0000 N   0  0  0  0  0  0  0  0  0
   -0.0702    0.2794    0.0000 C   0  0  0  0  0  0  0  0  0
    0.4819    0.8925    0.0000 C   0  0  0  0  0  0  0  0  0
  1  2  1  0  0  0  0
  2  3  4  0  0  0  0
  2  7  4  0  0  0  0
  3  4  4  0  0  0  0
  4  5  4  0  0  0  0
  5  6  4  0  0  0  0
  5 13  1  0  0  0  0
  6  7  4  0  0  0  0
  6 10  1  0  0  0  0
  7  8  1  0  0  0  0
  8  9  1  0  0  0  0
 10 11  2  0  0  0  0
 10 12  1  0  0  0  0
 12 13  1  0  0  0  0
 12 17  1  0  0  0  0
 13 14  1  0  0  0  0
 14 15  1  0  0  0  0
 15 16  1  0  0  0  0
 16 17  1  0  0  0  0
M  END
>  <Name_Molregno>
370620

>  <5-HT2A>
6.09

>  <5-HT2C>
6.75

$$$$
370621
  Marvin  02231216192D 0   1.00000     0.00000     0

 18 20  0  0  1  0  0  0  0  0999 V2000
   -0.1920   -2.1366    0.0000 O   0  0  0  0  0  0  0  0  0
    0.6149   -2.3081    0.0000 C   0  0  0  0  0  0  0  0  0
   -0.4470   -1.3520    0.0000 C   0  0  0  0  0  0  0  0  0
   -1.2539   -1.1804    0.0000 C   0  0  0  0  0  0  0  0  0
   -1.5089   -0.3958    0.0000 C   0  0  0  0  0  0  0  0  0
   -2.3339   -0.3958    0.0000 C   0  0  0  0  0  0  0  0  0
   -2.5888   -1.1804    0.0000 N   0  0  0  0  0  0  0  0  0
   -3.3958   -1.3520    0.0000 C   0  0  0  0  0  0  0  0  0
   -3.9478   -0.7389    0.0000 C   0  0  0  0  0  0  0  0  0
   -3.6929    0.0458    0.0000 N   0  0  0  0  0  0  0  0  0
   -2.8859    0.2173    0.0000 C   0  0  0  0  0  0  0  0  0
   -1.9214   -1.6654    0.0000 C   0  0  0  0  0  0  0  0  0
   -1.9214   -2.4904    0.0000 O   0  0  0  0  0  0  0  0  0
   -0.9568    0.2173    0.0000 C   0  0  0  0  0  0  0  0  0
   -0.1499    0.0458    0.0000 C   0  0  0  0  0  0  0  0  0
    0.1051   -0.7389    0.0000 C   0  0  0  0  0  0  0  0  0
    0.9120   -0.9104    0.0000 C   0  0  0  0  0  0  0  0  0
    1.4641   -0.2973    0.0000 C   0  0  0  0  0  0  0  0  0
  1  2  1  0  0  0  0
  1  3  1  0  0  0  0
  3  4  4  0  0  0  0
  3 16  4  0  0  0  0
  4  5  4  0  0  0  0
  4 12  1  0  0  0  0
  5  6  1  0  0  0  0
  5 14  4  0  0  0  0
  6  7  1  0  0  0  0
  6 11  1  0  0  0  0
  7  8  1  0  0  0  0
  7 12  1  0  0  0  0
  8  9  1  0  0  0  0
  9 10  1  0  0  0  0
 10 11  1  0  0  0  0
 12 13  2  0  0  0  0
 14 15  4  0  0  0  0
 15 16  4  0  0  0  0
 16 17  1  0  0  0  0
 17 18  1  0  0  0  0
M  END
>  <Name_Molregno>
370621

>  <5-HT2A>
7.37

>  <5-HT2C>
7.43

$$$$
370627
  Marvin  02231216192D 0   1.00000     0.00000     0

 17 19  0  0  1  0  0  0  0  0999 V2000
    3.3016   -3.1429    0.0000 Cl  0  0  0  0  0  0  0  0  0
    2.7496   -2.5298    0.0000 C   0  0  0  0  0  0  0  0  0
    1.9426   -2.7013    0.0000 C   0  0  0  0  0  0  0  0  0
    1.3906   -2.0882    0.0000 C   0  0  0  0  0  0  0  0  0
    1.6456   -1.3036    0.0000 C   0  0  0  0  0  0  0  0  0
    2.4525   -1.1321    0.0000 C   0  0  0  0  0  0  0  0  0
    3.0046   -1.7452    0.0000 C   0  0  0  0  0  0  0  0  0
    3.8115   -1.5737    0.0000 O   0  0  0  0  0  0  0  0  0
    4.0665   -0.7890    0.0000 C   0  0  0  0  0  0  0  0  0
    0.9781   -0.8187    0.0000 C   0  0  0  0  0  0  0  0  0
    0.9781    0.0063    0.0000 O   0  0  0  0  0  0  0  0  0
    0.3107   -1.3036    0.0000 N   0  0  0  0  0  0  0  0  0
    0.5656   -2.0882    0.0000 C   0  0  0  0  0  0  0  0  0
    0.0136   -2.7013    0.0000 C   0  0  0  0  0  0  0  0  0
   -0.7934   -2.5298    0.0000 N   0  0  0  0  0  0  0  0  0
   -1.0483   -1.7452    0.0000 C   0  0  0  0  0  0  0  0  0
   -0.4963   -1.1321    0.0000 C   0  0  0  0  0  0  0  0  0
  1  2  1  0  0  0  0
  2  3  4  0  0  0  0
  2  7  4  0  0  0  0
  3  4  4  0  0  0  0
  4  5  4  0  0  0  0
  4 13  1  0  0  0  0
  5  6  4  0  0  0  0
  5 10  1  0  0  0  0
  6  7  4  0  0  0  0
  7  8  1  0  0  0  0
  8  9  1  0  0  0  0
 10 11  2  0  0  0  0
 10 12  1  0  0  0  0
 12 13  1  0  0  0  0
 12 17  1  0  0  0  0
 13 14  1  0  0  0  0
 14 15  1  0  0  0  0
 15 16  1  0  0  0  0
 16 17  1  0  0  0  0
M  END
>  <Name_Molregno>
370627

>  <5-HT2A>
5.75

>  <5-HT2C>
5.63

$$$$
370628
  Marvin  02231216192D 0   1.00000     0.00000     0

 18 20  0  0  1  0  0  0  0  0999 V2000
    0.0360   -0.5594    0.0000 O   0  0  0  0  0  0  0  0  0
    0.5880    0.0537    0.0000 C   0  0  0  0  0  0  0  0  0
   -0.7710   -0.3879    0.0000 C   0  0  0  0  0  0  0  0  0
   -1.3230   -1.0010    0.0000 C   0  0  0  0  0  0  0  0  0
   -2.1300   -0.8295    0.0000 C   0  0  0  0  0  0  0  0  0
   -2.3849   -0.0448    0.0000 C   0  0  0  0  0  0  0  0  0
   -1.8329    0.5683    0.0000 C   0  0  0  0  0  0  0  0  0
   -1.0259    0.3967    0.0000 C   0  0  0  0  0  0  0  0  0
   -0.4739    1.0098    0.0000 C   0  0  0  0  0  0  0  0  0
   -0.7288    1.7944    0.0000 C   0  0  0  0  0  0  0  0  0
   -3.2099   -0.0448    0.0000 C   0  0  0  0  0  0  0  0  0
   -3.4649   -0.8295    0.0000 N   0  0  0  0  0  0  0  0  0
   -4.2718   -1.0010    0.0000 C   0  0  0  0  0  0  0  0  0
   -4.8239   -0.3879    0.0000 C   0  0  0  0  0  0  0  0  0
   -4.5689    0.3967    0.0000 N   0  0  0  0  0  0  0  0  0
   -3.7619    0.5683    0.0000 C   0  0  0  0  0  0  0  0  0
   -2.7974   -1.3144    0.0000 C   0  0  0  0  0  0  0  0  0
   -2.7974   -2.1394    0.0000 O   0  0  0  0  0  0  0  0  0
  1  2  1  0  0  0  0
  1  3  1  0  0  0  0
  3  4  4  0  0  0  0
  3  8  4  0  0  0  0
  4  5  4  0  0  0  0
  5  6  4  0  0  0  0
  5 17  1  0  0  0  0
  6  7  4  0  0  0  0
  6 11  1  0  0  0  0
  7  8  4  0  0  0  0
  8  9  1  0  0  0  0
  9 10  1  0  0  0  0
 11 12  1  0  0  0  0
 11 16  1  0  0  0  0
 12 13  1  0  0  0  0
 12 17  1  0  0  0  0
 13 14  1  0  0  0  0
 14 15  1  0  0  0  0
 15 16  1  0  0  0  0
 17 18  2  0  0  0  0
M  END
>  <Name_Molregno>
370628

>  <5-HT2A>
6.23

>  <5-HT2C>
7.44

$$$$
370629
  Marvin  02231216192D 0   1.00000     0.00000     0

 17 19  0  0  1  0  0  0  0  0999 V2000
    2.0751   -3.1595    0.0000 Cl  0  0  0  0  0  0  0  0  0
    1.8201   -2.3749    0.0000 C   0  0  0  0  0  0  0  0  0
    1.0132   -2.2033    0.0000 C   0  0  0  0  0  0  0  0  0
    0.7582   -1.4187    0.0000 C   0  0  0  0  0  0  0  0  0
    1.3103   -0.8056    0.0000 C   0  0  0  0  0  0  0  0  0
    2.1172   -0.9772    0.0000 C   0  0  0  0  0  0  0  0  0
    2.6693   -0.3641    0.0000 O   0  0  0  0  0  0  0  0  0
    3.4762   -0.5356    0.0000 C   0  0  0  0  0  0  0  0  0
    2.3722   -1.7618    0.0000 C   0  0  0  0  0  0  0  0  0
   -0.0668   -1.4187    0.0000 C   0  0  0  0  0  0  0  0  0
   -0.3217   -2.2033    0.0000 N   0  0  0  0  0  0  0  0  0
   -1.1287   -2.3749    0.0000 C   0  0  0  0  0  0  0  0  0
   -1.6807   -1.7618    0.0000 C   0  0  0  0  0  0  0  0  0
   -1.4258   -0.9772    0.0000 N   0  0  0  0  0  0  0  0  0
   -0.6188   -0.8056    0.0000 C   0  0  0  0  0  0  0  0  0
    0.3457   -2.6883    0.0000 C   0  0  0  0  0  0  0  0  0
    0.3457   -3.5133    0.0000 O   0  0  0  0  0  0  0  0  0
  1  2  1  0  0  0  0
  2  3  4  0  0  0  0
  2  9  4  0  0  0  0
  3  4  4  0  0  0  0
  3 16  1  0  0  0  0
  4  5  4  0  0  0  0
  4 10  1  0  0  0  0
  5  6  4  0  0  0  0
  6  7  1  0  0  0  0
  6  9  4  0  0  0  0
  7  8  1  0  0  0  0
 10 11  1  0  0  0  0
 10 15  1  0  0  0  0
 11 12  1  0  0  0  0
 11 16  1  0  0  0  0
 12 13  1  0  0  0  0
 13 14  1  0  0  0  0
 14 15  1  0  0  0  0
 16 17  2  0  0  0  0
M  END
>  <Name_Molregno>
370629

>  <5-HT2A>
5.35

>  <5-HT2C>
6.68

$$$$
370635
  Marvin  02231216192D 0   1.00000     0.00000     0

 17 19  0  0  1  0  0  0  0  0999 V2000
    2.0751   -3.1595    0.0000 Cl  0  0  0  0  0  0  0  0  0
    1.8201   -2.3749    0.0000 C   0  0  0  0  0  0  0  0  0
    1.0132   -2.2033    0.0000 C   0  0  0  0  0  0  0  0  0
    0.7582   -1.4187    0.0000 C   0  0  0  0  0  0  0  0  0
    1.3103   -0.8056    0.0000 C   0  0  0  0  0  0  0  0  0
    2.1172   -0.9772    0.0000 C   0  0  0  0  0  0  0  0  0
    2.3722   -1.7618    0.0000 C   0  0  0  0  0  0  0  0  0
    2.6693   -0.3641    0.0000 C   0  0  0  0  0  0  0  0  0
    3.4762   -0.5356    0.0000 C   0  0  0  0  0  0  0  0  0
   -0.0668   -1.4187    0.0000 C   0  0  0  0  0  0  0  0  0
   -0.3217   -2.2033    0.0000 N   0  0  0  0  0  0  0  0  0
   -1.1287   -2.3749    0.0000 C   0  0  0  0  0  0  0  0  0
   -1.6807   -1.7618    0.0000 C   0  0  0  0  0  0  0  0  0
   -1.4258   -0.9772    0.0000 N   0  0  0  0  0  0  0  0  0
   -0.6188   -0.8056    0.0000 C   0  0  0  0  0  0  0  0  0
    0.3457   -2.6883    0.0000 C   0  0  0  0  0  0  0  0  0
    0.3457   -3.5133    0.0000 O   0  0  0  0  0  0  0  0  0
  1  2  1  0  0  0  0
  2  3  4  0  0  0  0
  2  7  4  0  0  0  0
  3  4  4  0  0  0  0
  3 16  1  0  0  0  0
  4  5  4  0  0  0  0
  4 10  1  0  0  0  0
  5  6  4  0  0  0  0
  6  7  4  0  0  0  0
  6  8  1  0  0  0  0
  8  9  1  0  0  0  0
 10 11  1  0  0  0  0
 10 15  1  0  0  0  0
 11 12  1  0  0  0  0
 11 16  1  0  0  0  0
 12 13  1  0  0  0  0
 13 14  1  0  0  0  0
 14 15  1  0  0  0  0
 16 17  2  0  0  0  0
M  END
>  <Name_Molregno>
370635

>  <5-HT2A>
5.3

>  <5-HT2C>
6.91

$$$$
370636
  Marvin  02231216192D 0   1.00000     0.00000     0

 19 21  0  0  1  0  0  0  0  0999 V2000
    1.6214   -0.7226    0.0000 Cl  0  0  0  0  0  0  0  0  0
    1.0694   -1.3357    0.0000 C   0  0  0  0  0  0  0  0  0
    1.3243   -2.1203    0.0000 C   0  0  0  0  0  0  0  0  0
    0.7723   -2.7334    0.0000 C   0  0  0  0  0  0  0  0  0
   -0.0347   -2.5619    0.0000 C   0  0  0  0  0  0  0  0  0
   -0.2896   -1.7773    0.0000 C   0  0  0  0  0  0  0  0  0
    0.2624   -1.1642    0.0000 C   0  0  0  0  0  0  0  0  0
   -1.1146   -1.7773    0.0000 C   0  0  0  0  0  0  0  0  0
   -1.3696   -2.5619    0.0000 N   0  0  0  0  0  0  0  0  0
   -2.1765   -2.7334    0.0000 C   0  0  0  0  0  0  0  0  0
   -2.7286   -2.1203    0.0000 C   0  0  0  0  0  0  0  0  0
   -2.4736   -1.3357    0.0000 N   0  0  0  0  0  0  0  0  0
   -1.6666   -1.1642    0.0000 C   0  0  0  0  0  0  0  0  0
   -0.7021   -3.0468    0.0000 C   0  0  0  0  0  0  0  0  0
   -0.7021   -3.8718    0.0000 O   0  0  0  0  0  0  0  0  0
    1.0272   -3.5180    0.0000 C   0  0  0  0  0  0  0  0  0
    1.2822   -4.3027    0.0000 F   0  0  0  0  0  0  0  0  0
    0.2426   -3.7730    0.0000 F   0  0  0  0  0  0  0  0  0
    1.8119   -3.2631    0.0000 F   0  0  0  0  0  0  0  0  0
  1  2  1  0  0  0  0
  2  3  4  0  0  0  0
  2  7  4  0  0  0  0
  3  4  4  0  0  0  0
  4  5  4  0  0  0  0
  4 16  1  0  0  0  0
  5  6  4  0  0  0  0
  5 14  1  0  0  0  0
  6  7  4  0  0  0  0
  6  8  1  0  0  0  0
  8  9  1  0  0  0  0
  8 13  1  0  0  0  0
  9 10  1  0  0  0  0
  9 14  1  0  0  0  0
 10 11  1  0  0  0  0
 11 12  1  0  0  0  0
 12 13  1  0  0  0  0
 14 15  2  0  0  0  0
 16 17  1  0  0  0  0
 16 18  1  0  0  0  0
 16 19  1  0  0  0  0
M  END
>  <Name_Molregno>
370636

>  <5-HT2A>
5.98

>  <5-HT2C>
6.05

$$$$
370637
  Marvin  02231216192D 0   1.00000     0.00000     0

 21 23  0  0  1  0  0  0  0  0999 V2000
    1.2065   -3.6031    0.0000 F   0  0  0  0  0  0  0  0  0
    0.9516   -2.8184    0.0000 C   0  0  0  0  0  0  0  0  0
    1.7362   -2.5635    0.0000 F   0  0  0  0  0  0  0  0  0
    0.1670   -3.0734    0.0000 F   0  0  0  0  0  0  0  0  0
    0.6967   -2.0338    0.0000 C   0  0  0  0  0  0  0  0  0
   -0.1103   -1.8623    0.0000 C   0  0  0  0  0  0  0  0  0
   -0.3652   -1.0777    0.0000 C   0  0  0  0  0  0  0  0  0
    0.1868   -0.4646    0.0000 C   0  0  0  0  0  0  0  0  0
    0.9938   -0.6361    0.0000 C   0  0  0  0  0  0  0  0  0
    1.2487   -1.4207    0.0000 C   0  0  0  0  0  0  0  0  0
    1.5458   -0.0230    0.0000 C   0  0  0  0  0  0  0  0  0
    2.3528   -0.1945    0.0000 O   0  0  0  0  0  0  0  0  0
    1.2909    0.7616    0.0000 C   0  0  0  0  0  0  0  0  0
   -1.1902   -1.0777    0.0000 C   0  0  0  0  0  0  0  0  0
   -1.4452   -1.8623    0.0000 N   0  0  0  0  0  0  0  0  0
   -2.2522   -2.0338    0.0000 C   0  0  0  0  0  0  0  0  0
   -2.8042   -1.4207    0.0000 C   0  0  0  0  0  0  0  0  0
   -2.5493   -0.6361    0.0000 N   0  0  0  0  0  0  0  0  0
   -1.7423   -0.4646    0.0000 C   0  0  0  0  0  0  0  0  0
   -0.7777   -2.3472    0.0000 C   0  0  0  0  0  0  0  0  0
   -0.7777   -3.1722    0.0000 O   0  0  0  0  0  0  0  0  0
  1  2  1  0  0  0  0
  2  3  1  0  0  0  0
  2  4  1  0  0  0  0
  2  5  1  0  0  0  0
  5  6  4  0  0  0  0
  5 10  4  0  0  0  0
  6  7  4  0  0  0  0
  6 20  1  0  0  0  0
  7  8  4  0  0  0  0
  7 14  1  0  0  0  0
  8  9  4  0  0  0  0
  9 10  4  0  0  0  0
  9 11  1  0  0  0  0
 11 12  2  0  0  0  0
 11 13  1  0  0  0  0
 14 15  1  0  0  0  0
 14 19  1  0  0  0  0
 15 16  1  0  0  0  0
 15 20  1  0  0  0  0
 16 17  1  0  0  0  0
 17 18  1  0  0  0  0
 18 19  1  0  0  0  0
 20 21  2  0  0  0  0
M  END
>  <Name_Molregno>
370637

>  <5-HT2A>
5.28

>  <5-HT2C>
5.79

$$$$
370644
  Marvin  02231216192D 0   1.00000     0.00000     0

 20 22  0  0  1  0  0  0  0  0999 V2000
    3.0974   -3.5983    0.0000 F   0  0  0  0  0  0  0  0  0
    2.8425   -2.8137    0.0000 C   0  0  0  0  0  0  0  0  0
    3.6271   -2.5587    0.0000 F   0  0  0  0  0  0  0  0  0
    2.0579   -3.0686    0.0000 F   0  0  0  0  0  0  0  0  0
    2.5876   -2.0291    0.0000 C   0  0  0  0  0  0  0  0  0
    1.7806   -1.8575    0.0000 C   0  0  0  0  0  0  0  0  0
    1.5257   -1.0729    0.0000 C   0  0  0  0  0  0  0  0  0
    2.0777   -0.4598    0.0000 C   0  0  0  0  0  0  0  0  0
    2.8847   -0.6313    0.0000 C   0  0  0  0  0  0  0  0  0
    3.1396   -1.4160    0.0000 C   0  0  0  0  0  0  0  0  0
    3.4367   -0.0182    0.0000 C   0  0  0  0  0  0  0  0  0
    4.2437   -0.1898    0.0000 O   0  0  0  0  0  0  0  0  0
    0.7007   -1.0729    0.0000 C   0  0  0  0  0  0  0  0  0
    0.4457   -1.8575    0.0000 N   0  0  0  0  0  0  0  0  0
   -0.3613   -2.0291    0.0000 C   0  0  0  0  0  0  0  0  0
   -0.9133   -1.4160    0.0000 C   0  0  0  0  0  0  0  0  0
   -0.6584   -0.6313    0.0000 N   0  0  0  0  0  0  0  0  0
    0.1486   -0.4598    0.0000 C   0  0  0  0  0  0  0  0  0
    1.1132   -2.3424    0.0000 C   0  0  0  0  0  0  0  0  0
    1.1132   -3.1674    0.0000 O   0  0  0  0  0  0  0  0  0
  1  2  1  0  0  0  0
  2  3  1  0  0  0  0
  2  4  1  0  0  0  0
  2  5  1  0  0  0  0
  5  6  4  0  0  0  0
  5 10  4  0  0  0  0
  6  7  4  0  0  0  0
  6 19  1  0  0  0  0
  7  8  4  0  0  0  0
  7 13  1  0  0  0  0
  8  9  4  0  0  0  0
  9 10  4  0  0  0  0
  9 11  1  0  0  0  0
 11 12  1  0  0  0  0
 13 14  1  0  0  0  0
 13 18  1  0  0  0  0
 14 15  1  0  0  0  0
 14 19  1  0  0  0  0
 15 16  1  0  0  0  0
 16 17  1  0  0  0  0
 17 18  1  0  0  0  0
 19 20  2  0  0  0  0
M  END
>  <Name_Molregno>
370644

>  <5-HT2A>
5.52

>  <5-HT2C>
6.34

$$$$
370645
  Marvin  02231216192D 0   1.00000     0.00000     0

 20 22  0  0  1  0  0  0  0  0999 V2000
    3.0974   -3.5983    0.0000 F   0  0  0  0  0  0  0  0  0
    2.8425   -2.8137    0.0000 C   0  0  0  0  0  0  0  0  0
    3.6271   -2.5587    0.0000 F   0  0  0  0  0  0  0  0  0
    2.0579   -3.0686    0.0000 F   0  0  0  0  0  0  0  0  0
    2.5876   -2.0291    0.0000 C   0  0  0  0  0  0  0  0  0
    1.7806   -1.8575    0.0000 C   0  0  0  0  0  0  0  0  0
    1.5257   -1.0729    0.0000 C   0  0  0  0  0  0  0  0  0
    2.0777   -0.4598    0.0000 C   0  0  0  0  0  0  0  0  0
    2.8847   -0.6313    0.0000 C   0  0  0  0  0  0  0  0  0
    3.4367   -0.0182    0.0000 O   0  0  0  0  0  0  0  0  0
    4.2437   -0.1898    0.0000 C   0  0  0  0  0  0  0  0  0
    3.1396   -1.4160    0.0000 C   0  0  0  0  0  0  0  0  0
    0.7007   -1.0729    0.0000 C   0  0  0  0  0  0  0  0  0
    0.4457   -1.8575    0.0000 N   0  0  0  0  0  0  0  0  0
   -0.3613   -2.0291    0.0000 C   0  0  0  0  0  0  0  0  0
   -0.9133   -1.4160    0.0000 C   0  0  0  0  0  0  0  0  0
   -0.6584   -0.6313    0.0000 N   0  0  0  0  0  0  0  0  0
    0.1486   -0.4598    0.0000 C   0  0  0  0  0  0  0  0  0
    1.1132   -2.3424    0.0000 C   0  0  0  0  0  0  0  0  0
    1.1132   -3.1674    0.0000 O   0  0  0  0  0  0  0  0  0
  1  2  1  0  0  0  0
  2  3  1  0  0  0  0
  2  4  1  0  0  0  0
  2  5  1  0  0  0  0
  5  6  4  0  0  0  0
  5 12  4  0  0  0  0
  6  7  4  0  0  0  0
  6 19  1  0  0  0  0
  7  8  4  0  0  0  0
  7 13  1  0  0  0  0
  8  9  4  0  0  0  0
  9 10  1  0  0  0  0
  9 12  4  0  0  0  0
 10 11  1  0  0  0  0
 13 14  1  0  0  0  0
 13 18  1  0  0  0  0
 14 15  1  0  0  0  0
 14 19  1  0  0  0  0
 15 16  1  0  0  0  0
 16 17  1  0  0  0  0
 17 18  1  0  0  0  0
 19 20  2  0  0  0  0
M  END
>  <Name_Molregno>
370645

>  <5-HT2A>
5.85

>  <5-HT2C>
7.4

$$$$
370646
  Marvin  02231216192D 0   1.00000     0.00000     0

 21 23  0  0  1  0  0  0  0  0999 V2000
    0.4900   -4.4084    0.0000 F   0  0  0  0  0  0  0  0  0
    0.2351   -3.6238    0.0000 C   0  0  0  0  0  0  0  0  0
    1.0197   -3.3689    0.0000 F   0  0  0  0  0  0  0  0  0
   -0.5495   -3.8787    0.0000 F   0  0  0  0  0  0  0  0  0
   -0.0199   -2.8392    0.0000 C   0  0  0  0  0  0  0  0  0
   -0.8268   -2.6677    0.0000 C   0  0  0  0  0  0  0  0  0
   -1.0818   -1.8830    0.0000 C   0  0  0  0  0  0  0  0  0
   -0.5297   -1.2699    0.0000 C   0  0  0  0  0  0  0  0  0
    0.2772   -1.4415    0.0000 C   0  0  0  0  0  0  0  0  0
    0.8293   -0.8284    0.0000 O   0  0  0  0  0  0  0  0  0
    1.6362   -0.9999    0.0000 C   0  0  0  0  0  0  0  0  0
    2.1883   -0.3868    0.0000 C   0  0  0  0  0  0  0  0  0
    0.5322   -2.2261    0.0000 C   0  0  0  0  0  0  0  0  0
   -1.9068   -1.8830    0.0000 C   0  0  0  0  0  0  0  0  0
   -2.1617   -2.6677    0.0000 N   0  0  0  0  0  0  0  0  0
   -2.9687   -2.8392    0.0000 C   0  0  0  0  0  0  0  0  0
   -3.5207   -2.2261    0.0000 C   0  0  0  0  0  0  0  0  0
   -3.2658   -1.4415    0.0000 N   0  0  0  0  0  0  0  0  0
   -2.4588   -1.2699    0.0000 C   0  0  0  0  0  0  0  0  0
   -1.4943   -3.1526    0.0000 C   0  0  0  0  0  0  0  0  0
   -1.4943   -3.9776    0.0000 O   0  0  0  0  0  0  0  0  0
  1  2  1  0  0  0  0
  2  3  1  0  0  0  0
  2  4  1  0  0  0  0
  2  5  1  0  0  0  0
  5  6  4  0  0  0  0
  5 13  4  0  0  0  0
  6  7  4  0  0  0  0
  6 20  1  0  0  0  0
  7  8  4  0  0  0  0
  7 14  1  0  0  0  0
  8  9  4  0  0  0  0
  9 10  1  0  0  0  0
  9 13  4  0  0  0  0
 10 11  1  0  0  0  0
 11 12  1  0  0  0  0
 14 15  1  0  0  0  0
 14 19  1  0  0  0  0
 15 16  1  0  0  0  0
 15 20  1  0  0  0  0
 16 17  1  0  0  0  0
 17 18  1  0  0  0  0
 18 19  1  0  0  0  0
 20 21  2  0  0  0  0
M  END
>  <Name_Molregno>
370646

>  <5-HT2A>
5.42

>  <5-HT2C>
6.8

$$$$
382415
  Marvin  02231216192D 0   1.00000     0.00000     0

 18 19  0  0  0  0  0  0  0  0999 V2000
   -0.7360    1.4792    0.0000 S   0  0  0  0  0  0  0  0  0
   -0.9909    0.6946    0.0000 C   0  0  0  0  0  0  0  0  0
   -1.8159    0.6946    0.0000 C   0  0  0  0  0  0  0  0  0
   -2.0709    1.4792    0.0000 N   0  0  0  0  0  0  0  0  0
   -1.4034    1.9642    0.0000 C   0  0  0  0  0  0  0  0  0
   -1.4034    2.7892    0.0000 C   0  0  0  0  0  0  0  0  0
   -0.6890    3.2017    0.0000 F   0  0  0  0  0  0  0  0  0
   -2.3008    0.0272    0.0000 C   0  0  0  0  0  0  0  0  0
   -2.7858   -0.6403    0.0000 C   0  0  0  0  0  0  0  0  0
   -3.2707   -1.3077    0.0000 C   0  0  0  0  0  0  0  0  0
   -2.9351   -2.0614    0.0000 C   0  0  0  0  0  0  0  0  0
   -3.4201   -2.7288    0.0000 C   0  0  0  0  0  0  0  0  0
   -4.2405   -2.6426    0.0000 C   0  0  0  0  0  0  0  0  0
   -4.5761   -1.8889    0.0000 C   0  0  0  0  0  0  0  0  0
   -5.3966   -1.8027    0.0000 F   0  0  0  0  0  0  0  0  0
   -4.0912   -1.2215    0.0000 C   0  0  0  0  0  0  0  0  0
   -3.0845   -3.4825    0.0000 C   0  0  0  0  0  0  0  0  0
   -2.7489   -4.2362    0.0000 N   0  0  0  0  0  0  0  0  0
  1  2  4  0  0  0  0
  1  5  4  0  0  0  0
  2  3  4  0  0  0  0
  3  4  4  0  0  0  0
  3  8  1  0  0  0  0
  4  5  4  0  0  0  0
  5  6  1  0  0  0  0
  6  7  1  0  0  0  0
  8  9  3  0  0  0  0
  9 10  1  0  0  0  0
 10 11  4  0  0  0  0
 10 16  4  0  0  0  0
 11 12  4  0  0  0  0
 12 13  4  0  0  0  0
 12 17  1  0  0  0  0
 13 14  4  0  0  0  0
 14 15  1  0  0  0  0
 14 16  4  0  0  0  0
 17 18  3  0  0  0  0
M  END
>  <Name_Molregno>
382415

>  <5-HT1A>
5

>  <5-HT1B>
5

>  <5-HT1D>
5

>  <5-HT1E>
5

>  <5-HT2A>
5

>  <5-HT2C>
5

>  <5-HT3>
5

>  <5-HT5>
5

>  <5-HT6>
5

>  <5-HT7>
5

>  <Alpha-1A>
5

>  <Alpha-1B>
5

>  <Alpha-2A>
5

>  <Alpha-2B>
5

>  <Alpha-2C>
5

>  <Beta-1>
5

>  <Beta-2>
5

>  <DOPAMINE D1>
5

>  <DOPAMINE D2>
5

>  <DOPAMINE D3>
5

>  <DOPAMINE D4>
5

>  <DOPAMINE D5>
5

>  <Dopamine transporter>
5

>  <HISTAMINE H1>
5

>  <HISTAMINE H2>
5

>  <HISTAMINE H3>
5

>  <HISTAMINE H4>
5

>  <Muscarinic acetylcholine receptor M1>
5

>  <Muscarinic acetylcholine receptor M2>
5

>  <Muscarinic acetylcholine receptor M3>
5

>  <Muscarinic acetylcholine receptor M4>
5

>  <Muscarinic acetylcholine receptor M5>
5

>  <Norepinephrine transporter>
5

>  <Serotonin transporter>
5

$$$$
383960
  Marvin  02231216192D 0   1.00000     0.00000     0

 24 26  0  0  0  0  0  0  0  0999 V2000
    1.0300    0.9642    0.0000 S   0  0  0  0  0  0  0  0  0
    0.2050    0.9642    0.0000 O   0  0  0  0  0  0  0  0  0
    1.8550    0.9642    0.0000 O   0  0  0  0  0  0  0  0  0
    1.0300    1.7892    0.0000 N   0  0  0  0  0  0  0  0  0
    0.3155    2.2017    0.0000 C   0  0  0  0  0  0  0  0  0
   -0.3990    1.7892    0.0000 C   0  0  0  0  0  0  0  0  0
   -1.1134    2.2017    0.0000 C   0  0  0  0  0  0  0  0  0
   -1.1134    3.0267    0.0000 C   0  0  0  0  0  0  0  0  0
   -1.8981    3.2816    0.0000 C   0  0  0  0  0  0  0  0  0
   -2.3830    2.6142    0.0000 N   0  0  0  0  0  0  0  0  0
   -1.8981    1.9467    0.0000 C   0  0  0  0  0  0  0  0  0
   -3.2080    2.6142    0.0000 C   0  0  0  0  0  0  0  0  0
   -0.3990    3.4392    0.0000 C   0  0  0  0  0  0  0  0  0
    0.3155    3.0267    0.0000 C   0  0  0  0  0  0  0  0  0
    1.0300    0.1392    0.0000 C   0  0  0  0  0  0  0  0  0
    1.7444   -0.2733    0.0000 C   0  0  0  0  0  0  0  0  0
    1.7444   -1.0983    0.0000 C   0  0  0  0  0  0  0  0  0
    1.0300   -1.5108    0.0000 C   0  0  0  0  0  0  0  0  0
    0.3155   -1.0983    0.0000 C   0  0  0  0  0  0  0  0  0
    0.3155   -0.2733    0.0000 C   0  0  0  0  0  0  0  0  0
    1.0300   -2.3358    0.0000 C   0  0  0  0  0  0  0  0  0
    1.7444   -2.7483    0.0000 C   0  0  0  0  0  0  0  0  0
    1.7444   -3.5733    0.0000 C   0  0  0  0  0  0  0  0  0
    2.4589   -3.9858    0.0000 C   0  0  0  0  0  0  0  0  0
  1  2  2  0  0  0  0
  1  3  2  0  0  0  0
  1  4  1  0  0  0  0
  1 15  1  0  0  0  0
  4  5  1  0  0  0  0
  5  6  4  0  0  0  0
  5 14  4  0  0  0  0
  6  7  4  0  0  0  0
  7  8  4  0  0  0  0
  7 11  1  0  0  0  0
  8  9  1  0  0  0  0
  8 13  4  0  0  0  0
  9 10  1  0  0  0  0
 10 11  1  0  0  0  0
 10 12  1  0  0  0  0
 13 14  4  0  0  0  0
 15 16  4  0  0  0  0
 15 20  4  0  0  0  0
 16 17  4  0  0  0  0
 17 18  4  0  0  0  0
 18 19  4  0  0  0  0
 18 21  1  0  0  0  0
 19 20  4  0  0  0  0
 21 22  1  0  0  0  0
 22 23  1  0  0  0  0
 23 24  1  0  0  0  0
M  END
>  <Name_Molregno>
383960

>  <5-HT2A>
8.3

>  <5-HT2C>
8

>  <5-HT6>
8.3

>  <DOPAMINE D2>
6.7

>  <DOPAMINE D3>
7.7

$$$$
383961
  Marvin  02231216192D 0   1.00000     0.00000     0

 24 26  0  0  0  0  0  0  0  0999 V2000
   -0.0080   -0.0148    0.0000 S   0  0  0  0  0  0  0  0  0
    0.4045    0.6997    0.0000 O   0  0  0  0  0  0  0  0  0
   -0.4205   -0.7292    0.0000 O   0  0  0  0  0  0  0  0  0
    0.7065   -0.4273    0.0000 N   0  0  0  0  0  0  0  0  0
    1.4210   -0.0148    0.0000 C   0  0  0  0  0  0  0  0  0
    2.1354   -0.4273    0.0000 C   0  0  0  0  0  0  0  0  0
    2.8499   -0.0148    0.0000 C   0  0  0  0  0  0  0  0  0
    2.8499    0.8102    0.0000 C   0  0  0  0  0  0  0  0  0
    3.5644    1.2227    0.0000 C   0  0  0  0  0  0  0  0  0
    4.2788    0.8102    0.0000 C   0  0  0  0  0  0  0  0  0
    4.2788   -0.0148    0.0000 N   0  0  0  0  0  0  0  0  0
    3.5644   -0.4273    0.0000 C   0  0  0  0  0  0  0  0  0
    2.1354    1.2227    0.0000 C   0  0  0  0  0  0  0  0  0
    1.4210    0.8102    0.0000 C   0  0  0  0  0  0  0  0  0
   -0.7225    0.3977    0.0000 C   0  0  0  0  0  0  0  0  0
   -1.4369   -0.0148    0.0000 C   0  0  0  0  0  0  0  0  0
   -2.1514    0.3977    0.0000 C   0  0  0  0  0  0  0  0  0
   -2.1514    1.2227    0.0000 C   0  0  0  0  0  0  0  0  0
   -1.4369    1.6352    0.0000 C   0  0  0  0  0  0  0  0  0
   -0.7225    1.2227    0.0000 C   0  0  0  0  0  0  0  0  0
   -2.8659    1.6352    0.0000 C   0  0  0  0  0  0  0  0  0
   -3.5803    1.2227    0.0000 C   0  0  0  0  0  0  0  0  0
   -4.2948    1.6352    0.0000 C   0  0  0  0  0  0  0  0  0
   -5.0093    1.2227    0.0000 C   0  0  0  0  0  0  0  0  0
  1  2  2  0  0  0  0
  1  3  2  0  0  0  0
  1  4  1  0  0  0  0
  1 15  1  0  0  0  0
  4  5  1  0  0  0  0
  5  6  4  0  0  0  0
  5 14  4  0  0  0  0
  6  7  4  0  0  0  0
  7  8  4  0  0  0  0
  7 12  1  0  0  0  0
  8  9  1  0  0  0  0
  8 13  4  0  0  0  0
  9 10  1  0  0  0  0
 10 11  1  0  0  0  0
 11 12  1  0  0  0  0
 13 14  4  0  0  0  0
 15 16  4  0  0  0  0
 15 20  4  0  0  0  0
 16 17  4  0  0  0  0
 17 18  4  0  0  0  0
 18 19  4  0  0  0  0
 18 21  1  0  0  0  0
 19 20  4  0  0  0  0
 21 22  1  0  0  0  0
 22 23  1  0  0  0  0
 23 24  1  0  0  0  0
M  END
>  <Name_Molregno>
383961

>  <5-HT2A>
7.9

>  <5-HT2C>
7.5

>  <5-HT6>
7.6

>  <DOPAMINE D2>
6.05

>  <DOPAMINE D3>
7.95

$$$$
383963
  Marvin  02231216192D 0   1.00000     0.00000     0

 25 27  0  0  0  0  0  0  0  0999 V2000
   -0.5224   -0.8743    0.0000 S   0  0  0  0  0  0  0  0  0
    0.3026   -0.8743    0.0000 O   0  0  0  0  0  0  0  0  0
   -1.3474   -0.8743    0.0000 O   0  0  0  0  0  0  0  0  0
   -0.5224   -1.6993    0.0000 N   0  0  0  0  0  0  0  0  0
    0.1920   -2.1118    0.0000 C   0  0  0  0  0  0  0  0  0
    0.9065   -1.6993    0.0000 C   0  0  0  0  0  0  0  0  0
    1.6210   -2.1118    0.0000 C   0  0  0  0  0  0  0  0  0
    2.2660   -1.5974    0.0000 C   0  0  0  0  0  0  0  0  0
    3.0703   -1.7810    0.0000 C   0  0  0  0  0  0  0  0  0
    3.4283   -2.5243    0.0000 N   0  0  0  0  0  0  0  0  0
    3.0703   -3.2676    0.0000 C   0  0  0  0  0  0  0  0  0
    2.2660   -3.4512    0.0000 C   0  0  0  0  0  0  0  0  0
    1.6210   -2.9368    0.0000 C   0  0  0  0  0  0  0  0  0
    0.9065   -3.3493    0.0000 C   0  0  0  0  0  0  0  0  0
    0.1920   -2.9368    0.0000 C   0  0  0  0  0  0  0  0  0
   -0.5224   -0.0493    0.0000 C   0  0  0  0  0  0  0  0  0
   -1.2369    0.3632    0.0000 C   0  0  0  0  0  0  0  0  0
   -1.2369    1.1882    0.0000 C   0  0  0  0  0  0  0  0  0
   -0.5224    1.6007    0.0000 C   0  0  0  0  0  0  0  0  0
    0.1920    1.1882    0.0000 C   0  0  0  0  0  0  0  0  0
    0.1920    0.3632    0.0000 C   0  0  0  0  0  0  0  0  0
   -0.5224    2.4257    0.0000 C   0  0  0  0  0  0  0  0  0
   -1.2369    2.8382    0.0000 C   0  0  0  0  0  0  0  0  0
   -1.2369    3.6632    0.0000 C   0  0  0  0  0  0  0  0  0
   -1.9514    4.0757    0.0000 C   0  0  0  0  0  0  0  0  0
  1  2  2  0  0  0  0
  1  3  2  0  0  0  0
  1  4  1  0  0  0  0
  1 16  1  0  0  0  0
  4  5  1  0  0  0  0
  5  6  4  0  0  0  0
  5 15  4  0  0  0  0
  6  7  4  0  0  0  0
  7  8  1  0  0  0  0
  7 13  4  0  0  0  0
  8  9  1  0  0  0  0
  9 10  1  0  0  0  0
 10 11  1  0  0  0  0
 11 12  1  0  0  0  0
 12 13  1  0  0  0  0
 13 14  4  0  0  0  0
 14 15  4  0  0  0  0
 16 17  4  0  0  0  0
 16 21  4  0  0  0  0
 17 18  4  0  0  0  0
 18 19  4  0  0  0  0
 19 20  4  0  0  0  0
 19 22  1  0  0  0  0
 20 21  4  0  0  0  0
 22 23  1  0  0  0  0
 23 24  1  0  0  0  0
 24 25  1  0  0  0  0
M  END
>  <Name_Molregno>
383963

>  <5-HT2A>
7.8

>  <5-HT2C>
7.3

>  <5-HT6>
8.7

>  <DOPAMINE D2>
6.8

>  <DOPAMINE D3>
7.8

$$$$
383964
  Marvin  02231216192D 0   1.00000     0.00000     0

 26 28  0  0  0  0  0  0  0  0999 V2000
   -0.4846   -0.7961    0.0000 S   0  0  0  0  0  0  0  0  0
    0.3404   -0.7961    0.0000 O   0  0  0  0  0  0  0  0  0
   -1.3096   -0.7961    0.0000 O   0  0  0  0  0  0  0  0  0
   -0.4846   -1.6211    0.0000 N   0  0  0  0  0  0  0  0  0
    0.2299   -2.0336    0.0000 C   0  0  0  0  0  0  0  0  0
    0.9444   -1.6211    0.0000 C   0  0  0  0  0  0  0  0  0
    1.6588   -2.0336    0.0000 C   0  0  0  0  0  0  0  0  0
    2.3039   -1.5192    0.0000 C   0  0  0  0  0  0  0  0  0
    3.1082   -1.7028    0.0000 C   0  0  0  0  0  0  0  0  0
    3.4661   -2.4461    0.0000 N   0  0  0  0  0  0  0  0  0
    3.1082   -3.1894    0.0000 C   0  0  0  0  0  0  0  0  0
    2.3039   -3.3730    0.0000 C   0  0  0  0  0  0  0  0  0
    1.6588   -2.8586    0.0000 C   0  0  0  0  0  0  0  0  0
    0.9444   -3.2711    0.0000 C   0  0  0  0  0  0  0  0  0
    0.2299   -2.8586    0.0000 C   0  0  0  0  0  0  0  0  0
    4.2911   -2.4461    0.0000 C   0  0  0  0  0  0  0  0  0
   -0.4846    0.0289    0.0000 C   0  0  0  0  0  0  0  0  0
   -1.1990    0.4414    0.0000 C   0  0  0  0  0  0  0  0  0
   -1.1990    1.2664    0.0000 C   0  0  0  0  0  0  0  0  0
   -0.4846    1.6789    0.0000 C   0  0  0  0  0  0  0  0  0
    0.2299    1.2664    0.0000 C   0  0  0  0  0  0  0  0  0
    0.2299    0.4414    0.0000 C   0  0  0  0  0  0  0  0  0
   -0.4846    2.5039    0.0000 C   0  0  0  0  0  0  0  0  0
   -1.1990    2.9164    0.0000 C   0  0  0  0  0  0  0  0  0
   -1.1990    3.7414    0.0000 C   0  0  0  0  0  0  0  0  0
   -1.9135    4.1539    0.0000 C   0  0  0  0  0  0  0  0  0
  1  2  2  0  0  0  0
  1  3  2  0  0  0  0
  1  4  1  0  0  0  0
  1 17  1  0  0  0  0
  4  5  1  0  0  0  0
  5  6  4  0  0  0  0
  5 15  4  0  0  0  0
  6  7  4  0  0  0  0
  7  8  1  0  0  0  0
  7 13  4  0  0  0  0
  8  9  1  0  0  0  0
  9 10  1  0  0  0  0
 10 11  1  0  0  0  0
 10 16  1  0  0  0  0
 11 12  1  0  0  0  0
 12 13  1  0  0  0  0
 13 14  4  0  0  0  0
 14 15  4  0  0  0  0
 17 18  4  0  0  0  0
 17 22  4  0  0  0  0
 18 19  4  0  0  0  0
 19 20  4  0  0  0  0
 20 21  4  0  0  0  0
 20 23  1  0  0  0  0
 21 22  4  0  0  0  0
 23 24  1  0  0  0  0
 24 25  1  0  0  0  0
 25 26  1  0  0  0  0
M  END
>  <Name_Molregno>
383964

>  <5-HT2A>
8.3

>  <5-HT2C>
8

>  <5-HT6>
8.9

>  <DOPAMINE D2>
7.5

>  <DOPAMINE D3>
8.7

$$$$
383965
  Marvin  02231216192D 0   1.00000     0.00000     0

 29 32  0  0  0  0  0  0  0  0999 V2000
    0.1803   -2.8552    0.0000 Cl  0  0  0  0  0  0  0  0  0
    0.8948   -2.4427    0.0000 C   0  0  0  0  0  0  0  0  0
    0.8948   -1.6177    0.0000 C   0  0  0  0  0  0  0  0  0
    1.6092   -1.2052    0.0000 C   0  0  0  0  0  0  0  0  0
    2.3237   -1.6177    0.0000 C   0  0  0  0  0  0  0  0  0
    2.3237   -2.4427    0.0000 C   0  0  0  0  0  0  0  0  0
    1.6092   -2.8552    0.0000 C   0  0  0  0  0  0  0  0  0
    3.0382   -1.2052    0.0000 C   0  0  0  0  0  0  0  0  0
    3.0382   -0.3802    0.0000 C   0  0  0  0  0  0  0  0  0
    3.7526    0.0323    0.0000 C   0  0  0  0  0  0  0  0  0
    4.4671   -0.3802    0.0000 C   0  0  0  0  0  0  0  0  0
    5.1816    0.0323    0.0000 S   0  0  0  0  0  0  0  0  0
    5.5941   -0.6822    0.0000 O   0  0  0  0  0  0  0  0  0
    4.7691    0.7467    0.0000 O   0  0  0  0  0  0  0  0  0
    5.8960    0.4448    0.0000 N   0  0  0  0  0  0  0  0  0
    6.6105    0.0323    0.0000 C   0  0  0  0  0  0  0  0  0
    7.3250    0.4448    0.0000 C   0  0  0  0  0  0  0  0  0
    8.0395    0.0323    0.0000 C   0  0  0  0  0  0  0  0  0
    8.6845    0.5466    0.0000 C   0  0  0  0  0  0  0  0  0
    9.4888    0.3631    0.0000 C   0  0  0  0  0  0  0  0  0
    9.8467   -0.3802    0.0000 N   0  0  0  0  0  0  0  0  0
    9.4888   -1.1235    0.0000 C   0  0  0  0  0  0  0  0  0
    8.6845   -1.3071    0.0000 C   0  0  0  0  0  0  0  0  0
    8.0395   -0.7927    0.0000 C   0  0  0  0  0  0  0  0  0
    7.3250   -1.2052    0.0000 C   0  0  0  0  0  0  0  0  0
    6.6105   -0.7927    0.0000 C   0  0  0  0  0  0  0  0  0
   10.6717   -0.3802    0.0000 C   0  0  0  0  0  0  0  0  0
    4.4671   -1.2052    0.0000 C   0  0  0  0  0  0  0  0  0
    3.7526   -1.6177    0.0000 C   0  0  0  0  0  0  0  0  0
  1  2  1  0  0  0  0
  2  3  4  0  0  0  0
  2  7  4  0  0  0  0
  3  4  4  0  0  0  0
  4  5  4  0  0  0  0
  5  6  4  0  0  0  0
  5  8  1  0  0  0  0
  6  7  4  0  0  0  0
  8  9  4  0  0  0  0
  8 29  4  0  0  0  0
  9 10  4  0  0  0  0
 10 11  4  0  0  0  0
 11 12  1  0  0  0  0
 11 28  4  0  0  0  0
 12 13  2  0  0  0  0
 12 14  2  0  0  0  0
 12 15  1  0  0  0  0
 15 16  1  0  0  0  0
 16 17  4  0  0  0  0
 16 26  4  0  0  0  0
 17 18  4  0  0  0  0
 18 19  1  0  0  0  0
 18 24  4  0  0  0  0
 19 20  1  0  0  0  0
 20 21  1  0  0  0  0
 21 22  1  0  0  0  0
 21 27  1  0  0  0  0
 22 23  1  0  0  0  0
 23 24  1  0  0  0  0
 24 25  4  0  0  0  0
 25 26  4  0  0  0  0
 28 29  4  0  0  0  0
M  END
>  <Name_Molregno>
383965

>  <5-HT2A>
6.7

>  <5-HT2C>
7.7

>  <5-HT6>
8.3

>  <DOPAMINE D2>
6.8

>  <DOPAMINE D3>
7.8

$$$$
383966
  Marvin  02231216192D 0   1.00000     0.00000     0

 30 33  0  0  0  0  0  0  0  0999 V2000
   -0.1322   -0.7689    0.0000 Cl  0  0  0  0  0  0  0  0  0
    0.5823   -1.1814    0.0000 C   0  0  0  0  0  0  0  0  0
    1.2967   -0.7689    0.0000 C   0  0  0  0  0  0  0  0  0
    2.0112   -1.1814    0.0000 C   0  0  0  0  0  0  0  0  0
    2.0112   -2.0064    0.0000 C   0  0  0  0  0  0  0  0  0
    1.2967   -2.4189    0.0000 C   0  0  0  0  0  0  0  0  0
    0.5823   -2.0064    0.0000 C   0  0  0  0  0  0  0  0  0
   -0.1322   -2.4189    0.0000 F   0  0  0  0  0  0  0  0  0
    2.7257   -0.7689    0.0000 C   0  0  0  0  0  0  0  0  0
    2.7257    0.0561    0.0000 C   0  0  0  0  0  0  0  0  0
    3.4401    0.4686    0.0000 C   0  0  0  0  0  0  0  0  0
    4.1546    0.0561    0.0000 C   0  0  0  0  0  0  0  0  0
    4.8691    0.4686    0.0000 S   0  0  0  0  0  0  0  0  0
    5.2816   -0.2458    0.0000 O   0  0  0  0  0  0  0  0  0
    4.4566    1.1831    0.0000 O   0  0  0  0  0  0  0  0  0
    5.5836    0.8811    0.0000 N   0  0  0  0  0  0  0  0  0
    6.2980    0.4686    0.0000 C   0  0  0  0  0  0  0  0  0
    7.0125    0.8811    0.0000 C   0  0  0  0  0  0  0  0  0
    7.7270    0.4686    0.0000 C   0  0  0  0  0  0  0  0  0
    8.3720    0.9830    0.0000 C   0  0  0  0  0  0  0  0  0
    9.1763    0.7994    0.0000 C   0  0  0  0  0  0  0  0  0
    9.5342    0.0561    0.0000 N   0  0  0  0  0  0  0  0  0
    9.1763   -0.6872    0.0000 C   0  0  0  0  0  0  0  0  0
    8.3720   -0.8707    0.0000 C   0  0  0  0  0  0  0  0  0
    7.7270   -0.3564    0.0000 C   0  0  0  0  0  0  0  0  0
    7.0125   -0.7689    0.0000 C   0  0  0  0  0  0  0  0  0
    6.2980   -0.3564    0.0000 C   0  0  0  0  0  0  0  0  0
   10.3592    0.0561    0.0000 C   0  0  0  0  0  0  0  0  0
    4.1546   -0.7689    0.0000 C   0  0  0  0  0  0  0  0  0
    3.4401   -1.1814    0.0000 C   0  0  0  0  0  0  0  0  0
  1  2  1  0  0  0  0
  2  3  4  0  0  0  0
  2  7  4  0  0  0  0
  3  4  4  0  0  0  0
  4  5  4  0  0  0  0
  4  9  1  0  0  0  0
  5  6  4  0  0  0  0
  6  7  4  0  0  0  0
  7  8  1  0  0  0  0
  9 10  4  0  0  0  0
  9 30  4  0  0  0  0
 10 11  4  0  0  0  0
 11 12  4  0  0  0  0
 12 13  1  0  0  0  0
 12 29  4  0  0  0  0
 13 14  2  0  0  0  0
 13 15  2  0  0  0  0
 13 16  1  0  0  0  0
 16 17  1  0  0  0  0
 17 18  4  0  0  0  0
 17 27  4  0  0  0  0
 18 19  4  0  0  0  0
 19 20  1  0  0  0  0
 19 25  4  0  0  0  0
 20 21  1  0  0  0  0
 21 22  1  0  0  0  0
 22 23  1  0  0  0  0
 22 28  1  0  0  0  0
 23 24  1  0  0  0  0
 24 25  1  0  0  0  0
 25 26  4  0  0  0  0
 26 27  4  0  0  0  0
 29 30  4  0  0  0  0
M  END
>  <Name_Molregno>
383966

>  <5-HT2A>
7.3

>  <5-HT2C>
7.5

>  <5-HT6>
8.1

>  <DOPAMINE D2>
7.3

>  <DOPAMINE D3>
8.4

$$$$
383967
  Marvin  02231216192D 0   1.00000     0.00000     0

 30 33  0  0  0  0  0  0  0  0999 V2000
   -1.4916   -1.6494    0.0000 S   0  0  0  0  0  0  0  0  0
   -0.6666   -1.6494    0.0000 O   0  0  0  0  0  0  0  0  0
   -2.3166   -1.6494    0.0000 O   0  0  0  0  0  0  0  0  0
   -1.4916   -2.4744    0.0000 N   0  0  0  0  0  0  0  0  0
   -0.7771   -2.8869    0.0000 C   0  0  0  0  0  0  0  0  0
   -0.0626   -2.4744    0.0000 C   0  0  0  0  0  0  0  0  0
    0.6518   -2.8869    0.0000 C   0  0  0  0  0  0  0  0  0
    1.2968   -2.3725    0.0000 C   0  0  0  0  0  0  0  0  0
    2.1012   -2.5561    0.0000 C   0  0  0  0  0  0  0  0  0
    2.4591   -3.2994    0.0000 N   0  0  0  0  0  0  0  0  0
    2.1012   -4.0427    0.0000 C   0  0  0  0  0  0  0  0  0
    1.2968   -4.2263    0.0000 C   0  0  0  0  0  0  0  0  0
    0.6518   -3.7119    0.0000 C   0  0  0  0  0  0  0  0  0
   -0.0626   -4.1244    0.0000 C   0  0  0  0  0  0  0  0  0
   -0.7771   -3.7119    0.0000 C   0  0  0  0  0  0  0  0  0
    3.2841   -3.2994    0.0000 C   0  0  0  0  0  0  0  0  0
   -1.4916   -0.8244    0.0000 C   0  0  0  0  0  0  0  0  0
   -2.2060   -0.4119    0.0000 C   0  0  0  0  0  0  0  0  0
   -2.2060    0.4131    0.0000 C   0  0  0  0  0  0  0  0  0
   -1.4916    0.8256    0.0000 C   0  0  0  0  0  0  0  0  0
   -0.7771    0.4131    0.0000 C   0  0  0  0  0  0  0  0  0
   -0.7771   -0.4119    0.0000 C   0  0  0  0  0  0  0  0  0
   -1.4916    1.6506    0.0000 C   0  0  0  0  0  0  0  0  0
   -2.2060    2.0631    0.0000 C   0  0  0  0  0  0  0  0  0
   -2.2060    2.8881    0.0000 C   0  0  0  0  0  0  0  0  0
   -1.4916    3.3006    0.0000 C   0  0  0  0  0  0  0  0  0
   -0.7771    2.8881    0.0000 C   0  0  0  0  0  0  0  0  0
   -0.7771    2.0631    0.0000 C   0  0  0  0  0  0  0  0  0
   -1.4916    4.1256    0.0000 C   0  0  0  0  0  0  0  0  0
   -1.4916    4.9506    0.0000 N   0  0  0  0  0  0  0  0  0
  1  2  2  0  0  0  0
  1  3  2  0  0  0  0
  1  4  1  0  0  0  0
  1 17  1  0  0  0  0
  4  5  1  0  0  0  0
  5  6  4  0  0  0  0
  5 15  4  0  0  0  0
  6  7  4  0  0  0  0
  7  8  1  0  0  0  0
  7 13  4  0  0  0  0
  8  9  1  0  0  0  0
  9 10  1  0  0  0  0
 10 11  1  0  0  0  0
 10 16  1  0  0  0  0
 11 12  1  0  0  0  0
 12 13  1  0  0  0  0
 13 14  4  0  0  0  0
 14 15  4  0  0  0  0
 17 18  4  0  0  0  0
 17 22  4  0  0  0  0
 18 19  4  0  0  0  0
 19 20  4  0  0  0  0
 20 21  4  0  0  0  0
 20 23  1  0  0  0  0
 21 22  4  0  0  0  0
 23 24  4  0  0  0  0
 23 28  4  0  0  0  0
 24 25  4  0  0  0  0
 25 26  4  0  0  0  0
 26 27  4  0  0  0  0
 26 29  1  0  0  0  0
 27 28  4  0  0  0  0
 29 30  3  0  0  0  0
M  END
>  <Name_Molregno>
383967

>  <5-HT2A>
6.1

>  <5-HT2C>
7

>  <5-HT6>
7.6

>  <DOPAMINE D2>
6.3

>  <DOPAMINE D3>
7.8

$$$$
383968
  Marvin  02231216192D 0   1.00000     0.00000     0

 30 33  0  0  0  0  0  0  0  0999 V2000
    0.1608   -1.2195    0.0000 Cl  0  0  0  0  0  0  0  0  0
    0.8753   -0.8070    0.0000 C   0  0  0  0  0  0  0  0  0
    0.8753    0.0180    0.0000 C   0  0  0  0  0  0  0  0  0
    1.5898    0.4305    0.0000 C   0  0  0  0  0  0  0  0  0
    2.3042    0.0180    0.0000 C   0  0  0  0  0  0  0  0  0
    2.3042   -0.8070    0.0000 C   0  0  0  0  0  0  0  0  0
    1.5898   -1.2195    0.0000 C   0  0  0  0  0  0  0  0  0
    3.0187    0.4305    0.0000 C   0  0  0  0  0  0  0  0  0
    3.0187    1.2555    0.0000 C   0  0  0  0  0  0  0  0  0
    3.7332    1.6680    0.0000 C   0  0  0  0  0  0  0  0  0
    4.4477    1.2555    0.0000 C   0  0  0  0  0  0  0  0  0
    5.1621    1.6680    0.0000 S   0  0  0  0  0  0  0  0  0
    5.5746    0.9535    0.0000 O   0  0  0  0  0  0  0  0  0
    4.7496    2.3825    0.0000 O   0  0  0  0  0  0  0  0  0
    5.8766    2.0805    0.0000 N   0  0  0  0  0  0  0  0  0
    6.5911    1.6680    0.0000 C   0  0  0  0  0  0  0  0  0
    7.3055    2.0805    0.0000 C   0  0  0  0  0  0  0  0  0
    8.0200    1.6680    0.0000 C   0  0  0  0  0  0  0  0  0
    8.6650    2.1824    0.0000 C   0  0  0  0  0  0  0  0  0
    9.4693    1.9988    0.0000 C   0  0  0  0  0  0  0  0  0
    9.8273    1.2555    0.0000 N   0  0  0  0  0  0  0  0  0
    9.4693    0.5122    0.0000 C   0  0  0  0  0  0  0  0  0
    8.6650    0.3286    0.0000 C   0  0  0  0  0  0  0  0  0
    8.0200    0.8430    0.0000 C   0  0  0  0  0  0  0  0  0
    7.3055    0.4305    0.0000 C   0  0  0  0  0  0  0  0  0
    6.5911    0.8430    0.0000 C   0  0  0  0  0  0  0  0  0
   10.6523    1.2555    0.0000 C   0  0  0  0  0  0  0  0  0
    4.4477    0.4305    0.0000 C   0  0  0  0  0  0  0  0  0
    3.7332    0.0180    0.0000 C   0  0  0  0  0  0  0  0  0
    3.7332   -0.8070    0.0000 C   0  0  0  0  0  0  0  0  0
  1  2  1  0  0  0  0
  2  3  4  0  0  0  0
  2  7  4  0  0  0  0
  3  4  4  0  0  0  0
  4  5  4  0  0  0  0
  5  6  4  0  0  0  0
  5  8  1  0  0  0  0
  6  7  4  0  0  0  0
  8  9  4  0  0  0  0
  8 29  4  0  0  0  0
  9 10  4  0  0  0  0
 10 11  4  0  0  0  0
 11 12  1  0  0  0  0
 11 28  4  0  0  0  0
 12 13  2  0  0  0  0
 12 14  2  0  0  0  0
 12 15  1  0  0  0  0
 15 16  1  0  0  0  0
 16 17  4  0  0  0  0
 16 26  4  0  0  0  0
 17 18  4  0  0  0  0
 18 19  1  0  0  0  0
 18 24  4  0  0  0  0
 19 20  1  0  0  0  0
 20 21  1  0  0  0  0
 21 22  1  0  0  0  0
 21 27  1  0  0  0  0
 22 23  1  0  0  0  0
 23 24  1  0  0  0  0
 24 25  4  0  0  0  0
 25 26  4  0  0  0  0
 28 29  4  0  0  0  0
 29 30  1  0  0  0  0
M  END
>  <Name_Molregno>
383968

>  <5-HT2A>
6.9

>  <5-HT2C>
7.3

>  <5-HT6>
8.3

>  <DOPAMINE D2>
7.5

>  <DOPAMINE D3>
8.2

$$$$
383970
  Marvin  02231216192D 0   1.00000     0.00000     0

 28 31  0  0  0  0  0  0  0  0999 V2000
   -7.7286   -1.0718    0.0000 S   0  0  0  0  0  0  0  0  0
   -6.9749   -1.4074    0.0000 C   0  0  0  0  0  0  0  0  0
   -7.0611   -2.2278    0.0000 C   0  0  0  0  0  0  0  0  0
   -7.8681   -2.3994    0.0000 C   0  0  0  0  0  0  0  0  0
   -8.2806   -1.6849    0.0000 C   0  0  0  0  0  0  0  0  0
   -9.1011   -1.5987    0.0000 C   0  0  0  0  0  0  0  0  0
   -6.2604   -0.9949    0.0000 C   0  0  0  0  0  0  0  0  0
   -6.2604   -0.1699    0.0000 C   0  0  0  0  0  0  0  0  0
   -5.5459    0.2426    0.0000 C   0  0  0  0  0  0  0  0  0
   -4.8315   -0.1699    0.0000 C   0  0  0  0  0  0  0  0  0
   -4.1170    0.2426    0.0000 S   0  0  0  0  0  0  0  0  0
   -3.7045   -0.4718    0.0000 O   0  0  0  0  0  0  0  0  0
   -4.5295    0.9571    0.0000 O   0  0  0  0  0  0  0  0  0
   -3.4025    0.6551    0.0000 N   0  0  0  0  0  0  0  0  0
   -2.6880    0.2426    0.0000 C   0  0  0  0  0  0  0  0  0
   -1.9736    0.6551    0.0000 C   0  0  0  0  0  0  0  0  0
   -1.2591    0.2426    0.0000 C   0  0  0  0  0  0  0  0  0
   -0.6141    0.7570    0.0000 C   0  0  0  0  0  0  0  0  0
    0.1902    0.5734    0.0000 C   0  0  0  0  0  0  0  0  0
    0.5482   -0.1699    0.0000 N   0  0  0  0  0  0  0  0  0
    0.1902   -0.9132    0.0000 C   0  0  0  0  0  0  0  0  0
   -0.6141   -1.0967    0.0000 C   0  0  0  0  0  0  0  0  0
   -1.2591   -0.5824    0.0000 C   0  0  0  0  0  0  0  0  0
   -1.9736   -0.9949    0.0000 C   0  0  0  0  0  0  0  0  0
   -2.6880   -0.5824    0.0000 C   0  0  0  0  0  0  0  0  0
    1.3732   -0.1699    0.0000 C   0  0  0  0  0  0  0  0  0
   -4.8315   -0.9949    0.0000 C   0  0  0  0  0  0  0  0  0
   -5.5459   -1.4074    0.0000 C   0  0  0  0  0  0  0  0  0
  1  2  4  0  0  0  0
  1  5  4  0  0  0  0
  2  3  4  0  0  0  0
  2  7  1  0  0  0  0
  3  4  4  0  0  0  0
  4  5  4  0  0  0  0
  5  6  1  0  0  0  0
  7  8  4  0  0  0  0
  7 28  4  0  0  0  0
  8  9  4  0  0  0  0
  9 10  4  0  0  0  0
 10 11  1  0  0  0  0
 10 27  4  0  0  0  0
 11 12  2  0  0  0  0
 11 13  2  0  0  0  0
 11 14  1  0  0  0  0
 14 15  1  0  0  0  0
 15 16  4  0  0  0  0
 15 25  4  0  0  0  0
 16 17  4  0  0  0  0
 17 18  1  0  0  0  0
 17 23  4  0  0  0  0
 18 19  1  0  0  0  0
 19 20  1  0  0  0  0
 20 21  1  0  0  0  0
 20 26  1  0  0  0  0
 21 22  1  0  0  0  0
 22 23  1  0  0  0  0
 23 24  4  0  0  0  0
 24 25  4  0  0  0  0
 27 28  4  0  0  0  0
M  END
>  <Name_Molregno>
383970

>  <5-HT2A>
7.3

>  <5-HT2C>
7.9

>  <5-HT6>
8.2

>  <DOPAMINE D2>
6.5

>  <DOPAMINE D3>
7.6

$$$$
383971
  Marvin  02231216192D 0   1.00000     0.00000     0

 29 32  0  0  0  0  0  0  0  0999 V2000
   -0.7965   -1.3388    0.0000 S   0  0  0  0  0  0  0  0  0
    0.0285   -1.3388    0.0000 O   0  0  0  0  0  0  0  0  0
   -1.6215   -1.3388    0.0000 O   0  0  0  0  0  0  0  0  0
   -0.7965   -2.1638    0.0000 N   0  0  0  0  0  0  0  0  0
   -0.0821   -2.5763    0.0000 C   0  0  0  0  0  0  0  0  0
    0.6324   -2.1638    0.0000 C   0  0  0  0  0  0  0  0  0
    1.3469   -2.5763    0.0000 C   0  0  0  0  0  0  0  0  0
    1.9919   -2.0619    0.0000 C   0  0  0  0  0  0  0  0  0
    2.7962   -2.2455    0.0000 C   0  0  0  0  0  0  0  0  0
    3.1542   -2.9888    0.0000 N   0  0  0  0  0  0  0  0  0
    2.7962   -3.7321    0.0000 C   0  0  0  0  0  0  0  0  0
    1.9919   -3.9157    0.0000 C   0  0  0  0  0  0  0  0  0
    1.3469   -3.4013    0.0000 C   0  0  0  0  0  0  0  0  0
    0.6324   -3.8138    0.0000 C   0  0  0  0  0  0  0  0  0
   -0.0821   -3.4013    0.0000 C   0  0  0  0  0  0  0  0  0
    3.9792   -2.9888    0.0000 C   0  0  0  0  0  0  0  0  0
   -0.7965   -0.5138    0.0000 C   0  0  0  0  0  0  0  0  0
   -1.5110   -0.1013    0.0000 C   0  0  0  0  0  0  0  0  0
   -1.5110    0.7237    0.0000 C   0  0  0  0  0  0  0  0  0
   -0.7965    1.1362    0.0000 C   0  0  0  0  0  0  0  0  0
   -0.0821    0.7237    0.0000 C   0  0  0  0  0  0  0  0  0
   -0.0821   -0.1013    0.0000 C   0  0  0  0  0  0  0  0  0
   -0.7965    1.9612    0.0000 C   0  0  0  0  0  0  0  0  0
   -1.4640    2.4461    0.0000 C   0  0  0  0  0  0  0  0  0
   -1.2090    3.2307    0.0000 N   0  0  0  0  0  0  0  0  0
   -0.3840    3.2307    0.0000 O   0  0  0  0  0  0  0  0  0
   -0.1291    2.4461    0.0000 C   0  0  0  0  0  0  0  0  0
    0.6555    2.1912    0.0000 C   0  0  0  0  0  0  0  0  0
   -2.2486    2.1912    0.0000 C   0  0  0  0  0  0  0  0  0
  1  2  2  0  0  0  0
  1  3  2  0  0  0  0
  1  4  1  0  0  0  0
  1 17  1  0  0  0  0
  4  5  1  0  0  0  0
  5  6  4  0  0  0  0
  5 15  4  0  0  0  0
  6  7  4  0  0  0  0
  7  8  1  0  0  0  0
  7 13  4  0  0  0  0
  8  9  1  0  0  0  0
  9 10  1  0  0  0  0
 10 11  1  0  0  0  0
 10 16  1  0  0  0  0
 11 12  1  0  0  0  0
 12 13  1  0  0  0  0
 13 14  4  0  0  0  0
 14 15  4  0  0  0  0
 17 18  4  0  0  0  0
 17 22  4  0  0  0  0
 18 19  4  0  0  0  0
 19 20  4  0  0  0  0
 20 21  4  0  0  0  0
 20 23  1  0  0  0  0
 21 22  4  0  0  0  0
 23 24  4  0  0  0  0
 23 27  4  0  0  0  0
 24 25  4  0  0  0  0
 24 29  1  0  0  0  0
 25 26  4  0  0  0  0
 26 27  4  0  0  0  0
 27 28  1  0  0  0  0
M  END
>  <Name_Molregno>
383971

>  <5-HT2A>
5.9

>  <5-HT2C>
6.4

>  <5-HT6>
8

>  <DOPAMINE D2>
7

>  <DOPAMINE D3>
7.8

$$$$
383972
  Marvin  02231216192D 0   1.00000     0.00000     0

 30 33  0  0  0  0  0  0  0  0999 V2000
   -0.1078   -1.0428    0.0000 Cl  0  0  0  0  0  0  0  0  0
    0.6067   -0.6303    0.0000 C   0  0  0  0  0  0  0  0  0
    0.6067    0.1947    0.0000 C   0  0  0  0  0  0  0  0  0
    1.3212    0.6072    0.0000 C   0  0  0  0  0  0  0  0  0
    2.0356    0.1947    0.0000 C   0  0  0  0  0  0  0  0  0
    2.0356   -0.6303    0.0000 C   0  0  0  0  0  0  0  0  0
    1.3212   -1.0428    0.0000 C   0  0  0  0  0  0  0  0  0
    2.7501    0.6072    0.0000 C   0  0  0  0  0  0  0  0  0
    2.7501    1.4322    0.0000 C   0  0  0  0  0  0  0  0  0
    3.4646    1.8447    0.0000 C   0  0  0  0  0  0  0  0  0
    4.1791    1.4322    0.0000 C   0  0  0  0  0  0  0  0  0
    4.8935    1.8447    0.0000 S   0  0  0  0  0  0  0  0  0
    5.3060    1.1302    0.0000 O   0  0  0  0  0  0  0  0  0
    4.4810    2.5591    0.0000 O   0  0  0  0  0  0  0  0  0
    5.6080    2.2572    0.0000 N   0  0  0  0  0  0  0  0  0
    6.3225    1.8447    0.0000 C   0  0  0  0  0  0  0  0  0
    7.0369    2.2572    0.0000 C   0  0  0  0  0  0  0  0  0
    7.7514    1.8447    0.0000 C   0  0  0  0  0  0  0  0  0
    8.3964    2.3591    0.0000 C   0  0  0  0  0  0  0  0  0
    9.2007    2.1755    0.0000 C   0  0  0  0  0  0  0  0  0
    9.5587    1.4322    0.0000 N   0  0  0  0  0  0  0  0  0
    9.2007    0.6889    0.0000 C   0  0  0  0  0  0  0  0  0
    8.3964    0.5053    0.0000 C   0  0  0  0  0  0  0  0  0
    7.7514    1.0197    0.0000 C   0  0  0  0  0  0  0  0  0
    7.0369    0.6072    0.0000 C   0  0  0  0  0  0  0  0  0
    6.3225    1.0197    0.0000 C   0  0  0  0  0  0  0  0  0
    5.6080    0.6072    0.0000 C   0  0  0  0  0  0  0  0  0
   10.3837    1.4322    0.0000 C   0  0  0  0  0  0  0  0  0
    4.1791    0.6072    0.0000 C   0  0  0  0  0  0  0  0  0
    3.4646    0.1947    0.0000 C   0  0  0  0  0  0  0  0  0
  1  2  1  0  0  0  0
  2  3  4  0  0  0  0
  2  7  4  0  0  0  0
  3  4  4  0  0  0  0
  4  5  4  0  0  0  0
  5  6  4  0  0  0  0
  5  8  1  0  0  0  0
  6  7  4  0  0  0  0
  8  9  4  0  0  0  0
  8 30  4  0  0  0  0
  9 10  4  0  0  0  0
 10 11  4  0  0  0  0
 11 12  1  0  0  0  0
 11 29  4  0  0  0  0
 12 13  2  0  0  0  0
 12 14  2  0  0  0  0
 12 15  1  0  0  0  0
 15 16  1  0  0  0  0
 16 17  4  0  0  0  0
 16 26  4  0  0  0  0
 17 18  4  0  0  0  0
 18 19  1  0  0  0  0
 18 24  4  0  0  0  0
 19 20  1  0  0  0  0
 20 21  1  0  0  0  0
 21 22  1  0  0  0  0
 21 28  1  0  0  0  0
 22 23  1  0  0  0  0
 23 24  1  0  0  0  0
 24 25  4  0  0  0  0
 25 26  4  0  0  0  0
 26 27  1  0  0  0  0
 29 30  4  0  0  0  0
M  END
>  <Name_Molregno>
383972

>  <5-HT2A>
7.7

>  <5-HT2C>
7.1

>  <5-HT6>
7.8

>  <DOPAMINE D2>
7.8

>  <DOPAMINE D3>
8.8

$$$$
383974
  Marvin  02231216192D 0   1.00000     0.00000     0

 32 35  0  0  0  0  0  0  0  0999 V2000
    0.0842   -1.1207    0.0000 Cl  0  0  0  0  0  0  0  0  0
    0.7986   -0.7082    0.0000 C   0  0  0  0  0  0  0  0  0
    0.7986    0.1168    0.0000 C   0  0  0  0  0  0  0  0  0
    1.5131    0.5293    0.0000 C   0  0  0  0  0  0  0  0  0
    2.2276    0.1168    0.0000 C   0  0  0  0  0  0  0  0  0
    2.2276   -0.7082    0.0000 C   0  0  0  0  0  0  0  0  0
    1.5131   -1.1207    0.0000 C   0  0  0  0  0  0  0  0  0
    2.9421    0.5293    0.0000 C   0  0  0  0  0  0  0  0  0
    2.9421    1.3543    0.0000 C   0  0  0  0  0  0  0  0  0
    3.6565    1.7668    0.0000 C   0  0  0  0  0  0  0  0  0
    4.3710    1.3543    0.0000 C   0  0  0  0  0  0  0  0  0
    5.0855    1.7668    0.0000 S   0  0  0  0  0  0  0  0  0
    5.4980    1.0524    0.0000 O   0  0  0  0  0  0  0  0  0
    4.6730    2.4813    0.0000 O   0  0  0  0  0  0  0  0  0
    5.7999    2.1793    0.0000 N   0  0  0  0  0  0  0  0  0
    6.5144    1.7668    0.0000 C   0  0  0  0  0  0  0  0  0
    7.2289    2.1793    0.0000 C   0  0  0  0  0  0  0  0  0
    7.9433    1.7668    0.0000 C   0  0  0  0  0  0  0  0  0
    8.5884    2.2812    0.0000 C   0  0  0  0  0  0  0  0  0
    9.3927    2.0976    0.0000 C   0  0  0  0  0  0  0  0  0
    9.7506    1.3543    0.0000 N   0  0  0  0  0  0  0  0  0
    9.3927    0.6110    0.0000 C   0  0  0  0  0  0  0  0  0
    8.5884    0.4275    0.0000 C   0  0  0  0  0  0  0  0  0
    7.9433    0.9418    0.0000 C   0  0  0  0  0  0  0  0  0
    7.2289    0.5293    0.0000 C   0  0  0  0  0  0  0  0  0
    6.5144    0.9418    0.0000 C   0  0  0  0  0  0  0  0  0
    5.7999    0.5293    0.0000 C   0  0  0  0  0  0  0  0  0
    5.7999   -0.2957    0.0000 C   0  0  0  0  0  0  0  0  0
    5.0855    0.9418    0.0000 C   0  0  0  0  0  0  0  0  0
   10.5756    1.3543    0.0000 C   0  0  0  0  0  0  0  0  0
    4.3710    0.5293    0.0000 C   0  0  0  0  0  0  0  0  0
    3.6565    0.1168    0.0000 C   0  0  0  0  0  0  0  0  0
  1  2  1  0  0  0  0
  2  3  4  0  0  0  0
  2  7  4  0  0  0  0
  3  4  4  0  0  0  0
  4  5  4  0  0  0  0
  5  6  4  0  0  0  0
  5  8  1  0  0  0  0
  6  7  4  0  0  0  0
  8  9  4  0  0  0  0
  8 32  4  0  0  0  0
  9 10  4  0  0  0  0
 10 11  4  0  0  0  0
 11 12  1  0  0  0  0
 11 31  4  0  0  0  0
 12 13  2  0  0  0  0
 12 14  2  0  0  0  0
 12 15  1  0  0  0  0
 15 16  1  0  0  0  0
 16 17  4  0  0  0  0
 16 26  4  0  0  0  0
 17 18  4  0  0  0  0
 18 19  1  0  0  0  0
 18 24  4  0  0  0  0
 19 20  1  0  0  0  0
 20 21  1  0  0  0  0
 21 22  1  0  0  0  0
 21 30  1  0  0  0  0
 22 23  1  0  0  0  0
 23 24  1  0  0  0  0
 24 25  4  0  0  0  0
 25 26  4  0  0  0  0
 26 27  1  0  0  0  0
 27 28  1  0  0  0  0
 27 29  1  0  0  0  0
 31 32  4  0  0  0  0
M  END
>  <Name_Molregno>
383974

>  <5-HT2A>
8.3

>  <5-HT2C>
7.8

>  <5-HT6>
7.9

>  <DOPAMINE D2>
7

>  <DOPAMINE D3>
8.4

$$$$
383980
  Marvin  02231216192D 0   1.00000     0.00000     0

 30 33  0  0  0  0  0  0  0  0999 V2000
   -2.4278   -0.6033    0.0000 Cl  0  0  0  0  0  0  0  0  0
   -1.7133   -1.0158    0.0000 C   0  0  0  0  0  0  0  0  0
   -0.9989   -0.6033    0.0000 C   0  0  0  0  0  0  0  0  0
   -0.2844   -1.0158    0.0000 C   0  0  0  0  0  0  0  0  0
    0.3606   -0.5014    0.0000 C   0  0  0  0  0  0  0  0  0
    1.1649   -0.6850    0.0000 C   0  0  0  0  0  0  0  0  0
    1.5229   -1.4283    0.0000 N   0  0  0  0  0  0  0  0  0
    1.1649   -2.1716    0.0000 C   0  0  0  0  0  0  0  0  0
    0.3606   -2.3552    0.0000 C   0  0  0  0  0  0  0  0  0
   -0.2844   -1.8408    0.0000 C   0  0  0  0  0  0  0  0  0
   -0.9989   -2.2533    0.0000 C   0  0  0  0  0  0  0  0  0
   -1.7133   -1.8408    0.0000 C   0  0  0  0  0  0  0  0  0
   -2.4278   -2.2533    0.0000 N   0  0  0  0  0  0  0  0  0
   -3.1423   -1.8408    0.0000 S   0  0  0  0  0  0  0  0  0
   -3.5548   -2.5553    0.0000 O   0  0  0  0  0  0  0  0  0
   -2.7298   -1.1263    0.0000 O   0  0  0  0  0  0  0  0  0
   -3.8568   -1.4283    0.0000 C   0  0  0  0  0  0  0  0  0
   -4.5712   -1.8408    0.0000 C   0  0  0  0  0  0  0  0  0
   -5.2857   -1.4283    0.0000 C   0  0  0  0  0  0  0  0  0
   -5.2857   -0.6033    0.0000 C   0  0  0  0  0  0  0  0  0
   -4.5712   -0.1908    0.0000 C   0  0  0  0  0  0  0  0  0
   -3.8568   -0.6033    0.0000 C   0  0  0  0  0  0  0  0  0
   -6.0002   -0.1908    0.0000 C   0  0  0  0  0  0  0  0  0
   -6.7146   -0.6033    0.0000 C   0  0  0  0  0  0  0  0  0
   -7.4291   -0.1908    0.0000 C   0  0  0  0  0  0  0  0  0
   -7.4291    0.6342    0.0000 C   0  0  0  0  0  0  0  0  0
   -8.1436    1.0467    0.0000 Cl  0  0  0  0  0  0  0  0  0
   -6.7146    1.0467    0.0000 C   0  0  0  0  0  0  0  0  0
   -6.0002    0.6342    0.0000 C   0  0  0  0  0  0  0  0  0
    2.3479   -1.4283    0.0000 C   0  0  0  0  0  0  0  0  0
  1  2  1  0  0  0  0
  2  3  4  0  0  0  0
  2 12  4  0  0  0  0
  3  4  4  0  0  0  0
  4  5  1  0  0  0  0
  4 10  4  0  0  0  0
  5  6  1  0  0  0  0
  6  7  1  0  0  0  0
  7  8  1  0  0  0  0
  7 30  1  0  0  0  0
  8  9  1  0  0  0  0
  9 10  1  0  0  0  0
 10 11  4  0  0  0  0
 11 12  4  0  0  0  0
 12 13  1  0  0  0  0
 13 14  1  0  0  0  0
 14 15  2  0  0  0  0
 14 16  2  0  0  0  0
 14 17  1  0  0  0  0
 17 18  4  0  0  0  0
 17 22  4  0  0  0  0
 18 19  4  0  0  0  0
 19 20  4  0  0  0  0
 20 21  4  0  0  0  0
 20 23  1  0  0  0  0
 21 22  4  0  0  0  0
 23 24  4  0  0  0  0
 23 29  4  0  0  0  0
 24 25  4  0  0  0  0
 25 26  4  0  0  0  0
 26 27  1  0  0  0  0
 26 28  4  0  0  0  0
 28 29  4  0  0  0  0
M  END
>  <Name_Molregno>
383980

>  <5-HT2A>
7.5

>  <5-HT2C>
7.4

>  <5-HT6>
7.3

>  <DOPAMINE D2>
7.4

>  <DOPAMINE D3>
8.6

$$$$
383983
  Marvin  02231216192D 0   1.00000     0.00000     0

 31 34  0  0  0  0  0  0  0  0999 V2000
   -0.0094   -1.0040    0.0000 Cl  0  0  0  0  0  0  0  0  0
    0.7051   -0.5915    0.0000 C   0  0  0  0  0  0  0  0  0
    0.7051    0.2335    0.0000 C   0  0  0  0  0  0  0  0  0
    1.4195    0.6460    0.0000 C   0  0  0  0  0  0  0  0  0
    2.1340    0.2335    0.0000 C   0  0  0  0  0  0  0  0  0
    2.1340   -0.5915    0.0000 C   0  0  0  0  0  0  0  0  0
    1.4195   -1.0040    0.0000 C   0  0  0  0  0  0  0  0  0
    2.8485    0.6460    0.0000 C   0  0  0  0  0  0  0  0  0
    2.8485    1.4710    0.0000 C   0  0  0  0  0  0  0  0  0
    3.5630    1.8835    0.0000 C   0  0  0  0  0  0  0  0  0
    4.2774    1.4710    0.0000 C   0  0  0  0  0  0  0  0  0
    4.9919    1.8835    0.0000 S   0  0  0  0  0  0  0  0  0
    5.4044    1.1690    0.0000 O   0  0  0  0  0  0  0  0  0
    4.5794    2.5980    0.0000 O   0  0  0  0  0  0  0  0  0
    5.7064    2.2960    0.0000 N   0  0  0  0  0  0  0  0  0
    6.4208    1.8835    0.0000 C   0  0  0  0  0  0  0  0  0
    7.1353    2.2960    0.0000 C   0  0  0  0  0  0  0  0  0
    7.8498    1.8835    0.0000 C   0  0  0  0  0  0  0  0  0
    8.4948    2.3979    0.0000 C   0  0  0  0  0  0  0  0  0
    9.2991    2.2143    0.0000 C   0  0  0  0  0  0  0  0  0
    9.6571    1.4710    0.0000 N   0  0  0  0  0  0  0  0  0
    9.2991    0.7277    0.0000 C   0  0  0  0  0  0  0  0  0
    8.4948    0.5441    0.0000 C   0  0  0  0  0  0  0  0  0
    7.8498    1.0585    0.0000 C   0  0  0  0  0  0  0  0  0
    7.1353    0.6460    0.0000 C   0  0  0  0  0  0  0  0  0
    6.4208    1.0585    0.0000 C   0  0  0  0  0  0  0  0  0
    5.7064    0.6460    0.0000 O   0  0  0  0  0  0  0  0  0
    5.7064   -0.1790    0.0000 C   0  0  0  0  0  0  0  0  0
   10.4821    1.4710    0.0000 C   0  0  0  0  0  0  0  0  0
    4.2774    0.6460    0.0000 C   0  0  0  0  0  0  0  0  0
    3.5630    0.2335    0.0000 C   0  0  0  0  0  0  0  0  0
  1  2  1  0  0  0  0
  2  3  4  0  0  0  0
  2  7  4  0  0  0  0
  3  4  4  0  0  0  0
  4  5  4  0  0  0  0
  5  6  4  0  0  0  0
  5  8  1  0  0  0  0
  6  7  4  0  0  0  0
  8  9  4  0  0  0  0
  8 31  4  0  0  0  0
  9 10  4  0  0  0  0
 10 11  4  0  0  0  0
 11 12  1  0  0  0  0
 11 30  4  0  0  0  0
 12 13  2  0  0  0  0
 12 14  2  0  0  0  0
 12 15  1  0  0  0  0
 15 16  1  0  0  0  0
 16 17  4  0  0  0  0
 16 26  4  0  0  0  0
 17 18  4  0  0  0  0
 18 19  1  0  0  0  0
 18 24  4  0  0  0  0
 19 20  1  0  0  0  0
 20 21  1  0  0  0  0
 21 22  1  0  0  0  0
 21 29  1  0  0  0  0
 22 23  1  0  0  0  0
 23 24  1  0  0  0  0
 24 25  4  0  0  0  0
 25 26  4  0  0  0  0
 26 27  1  0  0  0  0
 27 28  1  0  0  0  0
 30 31  4  0  0  0  0
M  END
>  <Name_Molregno>
383983

>  <5-HT2A>
7.6

>  <5-HT2C>
7.4

>  <5-HT6>
8

>  <DOPAMINE D2>
8.4

>  <DOPAMINE D3>
9.1

$$$$
383985
  Marvin  02231216192D 0   1.00000     0.00000     0

 33 36  0  0  0  0  0  0  0  0999 V2000
    0.2117   -1.0056    0.0000 Cl  0  0  0  0  0  0  0  0  0
    0.9261   -0.5931    0.0000 C   0  0  0  0  0  0  0  0  0
    0.9261    0.2319    0.0000 C   0  0  0  0  0  0  0  0  0
    1.6406    0.6444    0.0000 C   0  0  0  0  0  0  0  0  0
    2.3551    0.2319    0.0000 C   0  0  0  0  0  0  0  0  0
    2.3551   -0.5931    0.0000 C   0  0  0  0  0  0  0  0  0
    1.6406   -1.0056    0.0000 C   0  0  0  0  0  0  0  0  0
    3.0695    0.6444    0.0000 C   0  0  0  0  0  0  0  0  0
    3.0695    1.4694    0.0000 C   0  0  0  0  0  0  0  0  0
    3.7840    1.8819    0.0000 C   0  0  0  0  0  0  0  0  0
    4.4985    1.4694    0.0000 C   0  0  0  0  0  0  0  0  0
    5.2130    1.8819    0.0000 S   0  0  0  0  0  0  0  0  0
    5.6255    1.1674    0.0000 O   0  0  0  0  0  0  0  0  0
    4.8005    2.5964    0.0000 O   0  0  0  0  0  0  0  0  0
    5.9274    2.2944    0.0000 N   0  0  0  0  0  0  0  0  0
    6.6419    1.8819    0.0000 C   0  0  0  0  0  0  0  0  0
    7.3564    2.2944    0.0000 C   0  0  0  0  0  0  0  0  0
    8.0708    1.8819    0.0000 C   0  0  0  0  0  0  0  0  0
    8.7159    2.3963    0.0000 C   0  0  0  0  0  0  0  0  0
    9.5202    2.2127    0.0000 C   0  0  0  0  0  0  0  0  0
    9.8781    1.4694    0.0000 N   0  0  0  0  0  0  0  0  0
    9.5202    0.7261    0.0000 C   0  0  0  0  0  0  0  0  0
    8.7159    0.5425    0.0000 C   0  0  0  0  0  0  0  0  0
    8.0708    1.0569    0.0000 C   0  0  0  0  0  0  0  0  0
    7.3564    0.6444    0.0000 C   0  0  0  0  0  0  0  0  0
    6.6419    1.0569    0.0000 C   0  0  0  0  0  0  0  0  0
    5.9274    0.6444    0.0000 O   0  0  0  0  0  0  0  0  0
    5.9274   -0.1806    0.0000 C   0  0  0  0  0  0  0  0  0
    6.6419   -0.5931    0.0000 C   0  0  0  0  0  0  0  0  0
    5.2130   -0.5931    0.0000 C   0  0  0  0  0  0  0  0  0
   10.7031    1.4694    0.0000 C   0  0  0  0  0  0  0  0  0
    4.4985    0.6444    0.0000 C   0  0  0  0  0  0  0  0  0
    3.7840    0.2319    0.0000 C   0  0  0  0  0  0  0  0  0
  1  2  1  0  0  0  0
  2  3  4  0  0  0  0
  2  7  4  0  0  0  0
  3  4  4  0  0  0  0
  4  5  4  0  0  0  0
  5  6  4  0  0  0  0
  5  8  1  0  0  0  0
  6  7  4  0  0  0  0
  8  9  4  0  0  0  0
  8 33  4  0  0  0  0
  9 10  4  0  0  0  0
 10 11  4  0  0  0  0
 11 12  1  0  0  0  0
 11 32  4  0  0  0  0
 12 13  2  0  0  0  0
 12 14  2  0  0  0  0
 12 15  1  0  0  0  0
 15 16  1  0  0  0  0
 16 17  4  0  0  0  0
 16 26  4  0  0  0  0
 17 18  4  0  0  0  0
 18 19  1  0  0  0  0
 18 24  4  0  0  0  0
 19 20  1  0  0  0  0
 20 21  1  0  0  0  0
 21 22  1  0  0  0  0
 21 31  1  0  0  0  0
 22 23  1  0  0  0  0
 23 24  1  0  0  0  0
 24 25  4  0  0  0  0
 25 26  4  0  0  0  0
 26 27  1  0  0  0  0
 27 28  1  0  0  0  0
 28 29  1  0  0  0  0
 28 30  1  0  0  0  0
 32 33  4  0  0  0  0
M  END
>  <Name_Molregno>
383985

>  <5-HT2A>
7.8

>  <5-HT2C>
7.4

>  <5-HT6>
7.5

>  <DOPAMINE D2>
8.2

>  <DOPAMINE D3>
9.1

$$$$
383987
  Marvin  02231216192D 0   1.00000     0.00000     0

 33 36  0  0  0  0  0  0  0  0999 V2000
    0.2117   -1.0056    0.0000 Cl  0  0  0  0  0  0  0  0  0
    0.9261   -0.5931    0.0000 C   0  0  0  0  0  0  0  0  0
    0.9261    0.2319    0.0000 C   0  0  0  0  0  0  0  0  0
    1.6406    0.6444    0.0000 C   0  0  0  0  0  0  0  0  0
    2.3551    0.2319    0.0000 C   0  0  0  0  0  0  0  0  0
    2.3551   -0.5931    0.0000 C   0  0  0  0  0  0  0  0  0
    1.6406   -1.0056    0.0000 C   0  0  0  0  0  0  0  0  0
    3.0695    0.6444    0.0000 C   0  0  0  0  0  0  0  0  0
    3.0695    1.4694    0.0000 C   0  0  0  0  0  0  0  0  0
    3.7840    1.8819    0.0000 C   0  0  0  0  0  0  0  0  0
    4.4985    1.4694    0.0000 C   0  0  0  0  0  0  0  0  0
    5.2130    1.8819    0.0000 S   0  0  0  0  0  0  0  0  0
    5.6255    1.1674    0.0000 O   0  0  0  0  0  0  0  0  0
    4.8005    2.5964    0.0000 O   0  0  0  0  0  0  0  0  0
    5.9274    2.2944    0.0000 N   0  0  0  0  0  0  0  0  0
    6.6419    1.8819    0.0000 C   0  0  0  0  0  0  0  0  0
    7.3564    2.2944    0.0000 C   0  0  0  0  0  0  0  0  0
    8.0708    1.8819    0.0000 C   0  0  0  0  0  0  0  0  0
    8.7159    2.3963    0.0000 C   0  0  0  0  0  0  0  0  0
    9.5202    2.2127    0.0000 C   0  0  0  0  0  0  0  0  0
    9.8781    1.4694    0.0000 N   0  0  0  0  0  0  0  0  0
    9.5202    0.7261    0.0000 C   0  0  0  0  0  0  0  0  0
    8.7159    0.5425    0.0000 C   0  0  0  0  0  0  0  0  0
    8.0708    1.0569    0.0000 C   0  0  0  0  0  0  0  0  0
    7.3564    0.6444    0.0000 C   0  0  0  0  0  0  0  0  0
    6.6419    1.0569    0.0000 C   0  0  0  0  0  0  0  0  0
    5.9274    0.6444    0.0000 N   0  0  0  0  0  0  0  0  0
    5.9274   -0.1806    0.0000 C   0  0  0  0  0  0  0  0  0
    6.6419   -0.5931    0.0000 C   0  0  0  0  0  0  0  0  0
    5.2130   -0.5931    0.0000 C   0  0  0  0  0  0  0  0  0
   10.7031    1.4694    0.0000 C   0  0  0  0  0  0  0  0  0
    4.4985    0.6444    0.0000 C   0  0  0  0  0  0  0  0  0
    3.7840    0.2319    0.0000 C   0  0  0  0  0  0  0  0  0
  1  2  1  0  0  0  0
  2  3  4  0  0  0  0
  2  7  4  0  0  0  0
  3  4  4  0  0  0  0
  4  5  4  0  0  0  0
  5  6  4  0  0  0  0
  5  8  1  0  0  0  0
  6  7  4  0  0  0  0
  8  9  4  0  0  0  0
  8 33  4  0  0  0  0
  9 10  4  0  0  0  0
 10 11  4  0  0  0  0
 11 12  1  0  0  0  0
 11 32  4  0  0  0  0
 12 13  2  0  0  0  0
 12 14  2  0  0  0  0
 12 15  1  0  0  0  0
 15 16  1  0  0  0  0
 16 17  4  0  0  0  0
 16 26  4  0  0  0  0
 17 18  4  0  0  0  0
 18 19  1  0  0  0  0
 18 24  4  0  0  0  0
 19 20  1  0  0  0  0
 20 21  1  0  0  0  0
 21 22  1  0  0  0  0
 21 31  1  0  0  0  0
 22 23  1  0  0  0  0
 23 24  1  0  0  0  0
 24 25  4  0  0  0  0
 25 26  4  0  0  0  0
 26 27  1  0  0  0  0
 27 28  1  0  0  0  0
 28 29  1  0  0  0  0
 28 30  1  0  0  0  0
 32 33  4  0  0  0  0
M  END
>  <Name_Molregno>
383987

>  <5-HT2A>
8.8

>  <5-HT2C>
8.3

>  <5-HT6>
8.1

>  <DOPAMINE D2>
7.3

>  <DOPAMINE D3>
8.5

$$$$
388319
  Marvin  02231216192D 0   1.00000     0.00000     0

 33 36  0  0  0  0  0  0  0  0999 V2000
  -10.0001    0.3660    0.0000 O   0  0  0  0  0  0  0  0  0
  -10.7146   -0.0465    0.0000 C   0  0  0  0  0  0  0  0  0
  -10.0001    1.1910    0.0000 C   0  0  0  0  0  0  0  0  0
  -10.7146    1.6035    0.0000 C   0  0  0  0  0  0  0  0  0
  -10.7146    2.4285    0.0000 C   0  0  0  0  0  0  0  0  0
  -10.0001    2.8410    0.0000 C   0  0  0  0  0  0  0  0  0
   -9.2857    2.4285    0.0000 C   0  0  0  0  0  0  0  0  0
   -9.2857    1.6035    0.0000 C   0  0  0  0  0  0  0  0  0
   -8.5712    1.1910    0.0000 N   0  0  0  0  0  0  0  0  0
   -7.8567    1.6035    0.0000 C   0  0  0  0  0  0  0  0  0
   -7.1423    1.1910    0.0000 C   0  0  0  0  0  0  0  0  0
   -7.1423    0.3660    0.0000 N   0  0  0  0  0  0  0  0  0
   -7.8567   -0.0465    0.0000 C   0  0  0  0  0  0  0  0  0
   -8.5712    0.3660    0.0000 C   0  0  0  0  0  0  0  0  0
   -6.4278   -0.0465    0.0000 C   0  0  0  0  0  0  0  0  0
   -5.7133    0.3660    0.0000 C   0  0  0  0  0  0  0  0  0
   -4.9988   -0.0465    0.0000 C   0  0  0  0  0  0  0  0  0
   -4.2844    0.3660    0.0000 C   0  0  0  0  0  0  0  0  0
   -3.5699   -0.0465    0.0000 N   0  0  0  0  0  0  0  0  0
   -2.8554    0.3660    0.0000 C   0  0  0  0  0  0  0  0  0
   -2.8554    1.1910    0.0000 O   0  0  0  0  0  0  0  0  0
   -2.1410   -0.0465    0.0000 C   0  0  0  0  0  0  0  0  0
   -1.4265    0.3660    0.0000 C   0  0  0  0  0  0  0  0  0
   -0.7120   -0.0465    0.0000 C   0  0  0  0  0  0  0  0  0
   -0.7120   -0.8715    0.0000 C   0  0  0  0  0  0  0  0  0
   -1.4265   -1.2840    0.0000 C   0  0  0  0  0  0  0  0  0
   -2.1410   -0.8715    0.0000 C   0  0  0  0  0  0  0  0  0
    0.0024   -1.2840    0.0000 C   0  0  0  0  0  0  0  0  0
    0.7169   -0.8715    0.0000 N   0  0  0  0  0  0  0  0  0
    1.4314   -1.2840    0.0000 C   0  0  0  0  0  0  0  0  0
    1.4314   -2.1090    0.0000 C   0  0  0  0  0  0  0  0  0
    0.7169   -2.5215    0.0000 C   0  0  0  0  0  0  0  0  0
    0.0024   -2.1090    0.0000 C   0  0  0  0  0  0  0  0  0
  1  2  1  0  0  0  0
  1  3  1  0  0  0  0
  3  4  4  0  0  0  0
  3  8  4  0  0  0  0
  4  5  4  0  0  0  0
  5  6  4  0  0  0  0
  6  7  4  0  0  0  0
  7  8  4  0  0  0  0
  8  9  1  0  0  0  0
  9 10  1  0  0  0  0
  9 14  1  0  0  0  0
 10 11  1  0  0  0  0
 11 12  1  0  0  0  0
 12 13  1  0  0  0  0
 12 15  1  0  0  0  0
 13 14  1  0  0  0  0
 15 16  1  0  0  0  0
 16 17  1  0  0  0  0
 17 18  1  0  0  0  0
 18 19  1  0  0  0  0
 19 20  1  0  0  0  0
 20 21  2  0  0  0  0
 20 22  1  0  0  0  0
 22 23  4  0  0  0  0
 22 27  4  0  0  0  0
 23 24  4  0  0  0  0
 24 25  4  0  0  0  0
 25 26  4  0  0  0  0
 25 28  1  0  0  0  0
 26 27  4  0  0  0  0
 28 29  4  0  0  0  0
 28 33  4  0  0  0  0
 29 30  4  0  0  0  0
 30 31  4  0  0  0  0
 31 32  4  0  0  0  0
 32 33  4  0  0  0  0
M  END
>  <Name_Molregno>
388319

>  <5-HT1A>
8.17

>  <5-HT2A>
6.64

>  <5-HT2C>
6.13

>  <DOPAMINE D2>
7.55

>  <DOPAMINE D3>
9.4

$$$$
388321
  Marvin  02231216192D 0   1.00000     0.00000     0

 34 37  0  0  0  0  0  0  0  0999 V2000
   -8.6886    2.9310    0.0000 Cl  0  0  0  0  0  0  0  0  0
   -8.6886    2.1060    0.0000 C   0  0  0  0  0  0  0  0  0
   -7.9741    1.6935    0.0000 C   0  0  0  0  0  0  0  0  0
   -7.2596    2.1060    0.0000 N   0  0  0  0  0  0  0  0  0
   -7.2596    2.9310    0.0000 C   0  0  0  0  0  0  0  0  0
   -6.5451    3.3435    0.0000 C   0  0  0  0  0  0  0  0  0
   -5.8307    2.9310    0.0000 N   0  0  0  0  0  0  0  0  0
   -5.8307    2.1060    0.0000 C   0  0  0  0  0  0  0  0  0
   -6.5451    1.6935    0.0000 C   0  0  0  0  0  0  0  0  0
   -5.1162    3.3435    0.0000 C   0  0  0  0  0  0  0  0  0
   -4.4017    2.9310    0.0000 C   0  0  0  0  0  0  0  0  0
   -4.4017    2.1060    0.0000 C   0  0  0  0  0  0  0  0  0
   -3.6873    1.6935    0.0000 C   0  0  0  0  0  0  0  0  0
   -3.6873    0.8685    0.0000 N   0  0  0  0  0  0  0  0  0
   -2.9728    0.4560    0.0000 C   0  0  0  0  0  0  0  0  0
   -2.2583    0.8685    0.0000 O   0  0  0  0  0  0  0  0  0
   -2.9728   -0.3690    0.0000 C   0  0  0  0  0  0  0  0  0
   -2.2583   -0.7815    0.0000 C   0  0  0  0  0  0  0  0  0
   -2.2583   -1.6065    0.0000 C   0  0  0  0  0  0  0  0  0
   -2.9728   -2.0190    0.0000 C   0  0  0  0  0  0  0  0  0
   -3.6873   -1.6065    0.0000 C   0  0  0  0  0  0  0  0  0
   -3.6873   -0.7815    0.0000 C   0  0  0  0  0  0  0  0  0
   -2.9728   -2.8440    0.0000 C   0  0  0  0  0  0  0  0  0
   -2.2583   -3.2565    0.0000 N   0  0  0  0  0  0  0  0  0
   -2.2583   -4.0815    0.0000 C   0  0  0  0  0  0  0  0  0
   -1.5438   -4.4940    0.0000 O   0  0  0  0  0  0  0  0  0
   -2.9728   -4.4940    0.0000 C   0  0  0  0  0  0  0  0  0
   -3.6873   -4.0815    0.0000 C   0  0  0  0  0  0  0  0  0
   -3.6873   -3.2565    0.0000 C   0  0  0  0  0  0  0  0  0
   -7.9741    0.8685    0.0000 C   0  0  0  0  0  0  0  0  0
   -8.6886    0.4560    0.0000 C   0  0  0  0  0  0  0  0  0
   -9.4030    0.8685    0.0000 C   0  0  0  0  0  0  0  0  0
   -9.4030    1.6935    0.0000 C   0  0  0  0  0  0  0  0  0
  -10.1175    2.1060    0.0000 Cl  0  0  0  0  0  0  0  0  0
  1  2  1  0  0  0  0
  2  3  4  0  0  0  0
  2 33  4  0  0  0  0
  3  4  1  0  0  0  0
  3 30  4  0  0  0  0
  4  5  1  0  0  0  0
  4  9  1  0  0  0  0
  5  6  1  0  0  0  0
  6  7  1  0  0  0  0
  7  8  1  0  0  0  0
  7 10  1  0  0  0  0
  8  9  1  0  0  0  0
 10 11  1  0  0  0  0
 11 12  2  0  0  0  0
 12 13  1  0  0  0  0
 13 14  1  0  0  0  0
 14 15  1  0  0  0  0
 15 16  2  0  0  0  0
 15 17  1  0  0  0  0
 17 18  4  0  0  0  0
 17 22  4  0  0  0  0
 18 19  4  0  0  0  0
 19 20  4  0  0  0  0
 20 21  4  0  0  0  0
 20 23  1  0  0  0  0
 21 22  4  0  0  0  0
 23 24  1  0  0  0  0
 23 29  2  0  0  0  0
 24 25  1  0  0  0  0
 25 26  2  0  0  0  0
 25 27  1  0  0  0  0
 27 28  2  0  0  0  0
 28 29  1  0  0  0  0
 30 31  4  0  0  0  0
 31 32  4  0  0  0  0
 32 33  4  0  0  0  0
 33 34  1  0  0  0  0
M  END
>  <Name_Molregno>
388321

>  <5-HT1A>
7.53

>  <5-HT2A>
7.81

>  <5-HT2C>
7.97

>  <DOPAMINE D2>
7.63

>  <DOPAMINE D3>
9.22

$$$$
388322
  Marvin  02231216192D 0   1.00000     0.00000     0

 34 37  0  0  0  0  0  0  0  0999 V2000
   -8.6886    2.9310    0.0000 Cl  0  0  0  0  0  0  0  0  0
   -8.6886    2.1060    0.0000 C   0  0  0  0  0  0  0  0  0
   -7.9741    1.6935    0.0000 C   0  0  0  0  0  0  0  0  0
   -7.2596    2.1060    0.0000 N   0  0  0  0  0  0  0  0  0
   -7.2596    2.9310    0.0000 C   0  0  0  0  0  0  0  0  0
   -6.5451    3.3435    0.0000 C   0  0  0  0  0  0  0  0  0
   -5.8307    2.9310    0.0000 N   0  0  0  0  0  0  0  0  0
   -5.8307    2.1060    0.0000 C   0  0  0  0  0  0  0  0  0
   -6.5451    1.6935    0.0000 C   0  0  0  0  0  0  0  0  0
   -5.1162    3.3435    0.0000 C   0  0  0  0  0  0  0  0  0
   -4.4017    2.9310    0.0000 C   0  0  0  0  0  0  0  0  0
   -4.4017    2.1060    0.0000 C   0  0  0  0  0  0  0  0  0
   -3.6873    1.6935    0.0000 C   0  0  0  0  0  0  0  0  0
   -3.6873    0.8685    0.0000 N   0  0  0  0  0  0  0  0  0
   -2.9728    0.4560    0.0000 C   0  0  0  0  0  0  0  0  0
   -2.2583    0.8685    0.0000 O   0  0  0  0  0  0  0  0  0
   -2.9728   -0.3690    0.0000 C   0  0  0  0  0  0  0  0  0
   -2.2583   -0.7815    0.0000 C   0  0  0  0  0  0  0  0  0
   -2.2583   -1.6065    0.0000 C   0  0  0  0  0  0  0  0  0
   -2.9728   -2.0190    0.0000 C   0  0  0  0  0  0  0  0  0
   -3.6873   -1.6065    0.0000 C   0  0  0  0  0  0  0  0  0
   -3.6873   -0.7815    0.0000 C   0  0  0  0  0  0  0  0  0
   -2.9728   -2.8440    0.0000 C   0  0  0  0  0  0  0  0  0
   -2.2583   -3.2565    0.0000 N   0  0  0  0  0  0  0  0  0
   -2.2583   -4.0815    0.0000 C   0  0  0  0  0  0  0  0  0
   -2.9728   -4.4940    0.0000 C   0  0  0  0  0  0  0  0  0
   -3.6873   -4.0815    0.0000 C   0  0  0  0  0  0  0  0  0
   -3.6873   -3.2565    0.0000 C   0  0  0  0  0  0  0  0  0
   -1.5438   -4.4940    0.0000 C   0  0  0  0  0  0  0  0  0
   -7.9741    0.8685    0.0000 C   0  0  0  0  0  0  0  0  0
   -8.6886    0.4560    0.0000 C   0  0  0  0  0  0  0  0  0
   -9.4030    0.8685    0.0000 C   0  0  0  0  0  0  0  0  0
   -9.4030    1.6935    0.0000 C   0  0  0  0  0  0  0  0  0
  -10.1175    2.1060    0.0000 Cl  0  0  0  0  0  0  0  0  0
  1  2  1  0  0  0  0
  2  3  4  0  0  0  0
  2 33  4  0  0  0  0
  3  4  1  0  0  0  0
  3 30  4  0  0  0  0
  4  5  1  0  0  0  0
  4  9  1  0  0  0  0
  5  6  1  0  0  0  0
  6  7  1  0  0  0  0
  7  8  1  0  0  0  0
  7 10  1  0  0  0  0
  8  9  1  0  0  0  0
 10 11  1  0  0  0  0
 11 12  2  0  0  0  0
 12 13  1  0  0  0  0
 13 14  1  0  0  0  0
 14 15  1  0  0  0  0
 15 16  2  0  0  0  0
 15 17  1  0  0  0  0
 17 18  4  0  0  0  0
 17 22  4  0  0  0  0
 18 19  4  0  0  0  0
 19 20  4  0  0  0  0
 20 21  4  0  0  0  0
 20 23  1  0  0  0  0
 21 22  4  0  0  0  0
 23 24  4  0  0  0  0
 23 28  4  0  0  0  0
 24 25  4  0  0  0  0
 25 26  4  0  0  0  0
 25 29  1  0  0  0  0
 26 27  4  0  0  0  0
 27 28  4  0  0  0  0
 30 31  4  0  0  0  0
 31 32  4  0  0  0  0
 32 33  4  0  0  0  0
 33 34  1  0  0  0  0
M  END
>  <Name_Molregno>
388322

>  <5-HT1A>
6.51

>  <5-HT2A>
7.03

>  <5-HT2C>
7.02

>  <DOPAMINE D2>
6.98

>  <DOPAMINE D3>
8.85

$$$$
388323
  Marvin  02231216192D 0   1.00000     0.00000     0

 34 37  0  0  0  0  0  0  0  0999 V2000
    1.5867    2.8685    0.0000 Cl  0  0  0  0  0  0  0  0  0
    1.5867    2.0435    0.0000 C   0  0  0  0  0  0  0  0  0
    2.3012    1.6310    0.0000 C   0  0  0  0  0  0  0  0  0
    3.0157    2.0435    0.0000 N   0  0  0  0  0  0  0  0  0
    3.0157    2.8685    0.0000 C   0  0  0  0  0  0  0  0  0
    3.7301    3.2810    0.0000 C   0  0  0  0  0  0  0  0  0
    4.4446    2.8685    0.0000 N   0  0  0  0  0  0  0  0  0
    4.4446    2.0435    0.0000 C   0  0  0  0  0  0  0  0  0
    3.7301    1.6310    0.0000 C   0  0  0  0  0  0  0  0  0
    5.1591    3.2810    0.0000 C   0  0  0  0  0  0  0  0  0
    5.8736    2.8685    0.0000 C   0  0  0  0  0  0  0  0  0
    5.8736    2.0435    0.0000 C   0  0  0  0  0  0  0  0  0
    6.5880    1.6310    0.0000 C   0  0  0  0  0  0  0  0  0
    6.5880    0.8060    0.0000 N   0  0  0  0  0  0  0  0  0
    7.3025    0.3935    0.0000 C   0  0  0  0  0  0  0  0  0
    8.0170    0.8060    0.0000 O   0  0  0  0  0  0  0  0  0
    7.3025   -0.4315    0.0000 C   0  0  0  0  0  0  0  0  0
    8.0170   -0.8440    0.0000 C   0  0  0  0  0  0  0  0  0
    8.0170   -1.6690    0.0000 C   0  0  0  0  0  0  0  0  0
    7.3025   -2.0815    0.0000 C   0  0  0  0  0  0  0  0  0
    6.5880   -1.6690    0.0000 C   0  0  0  0  0  0  0  0  0
    6.5880   -0.8440    0.0000 C   0  0  0  0  0  0  0  0  0
    7.3025   -2.9065    0.0000 C   0  0  0  0  0  0  0  0  0
    8.0170   -3.3190    0.0000 N   0  0  0  0  0  0  0  0  0
    8.0170   -4.1440    0.0000 C   0  0  0  0  0  0  0  0  0
    7.3025   -4.5565    0.0000 C   0  0  0  0  0  0  0  0  0
    6.5880   -4.1440    0.0000 C   0  0  0  0  0  0  0  0  0
    6.5880   -3.3190    0.0000 C   0  0  0  0  0  0  0  0  0
    5.8736   -2.9065    0.0000 C   0  0  0  0  0  0  0  0  0
    2.3012    0.8060    0.0000 C   0  0  0  0  0  0  0  0  0
    1.5867    0.3935    0.0000 C   0  0  0  0  0  0  0  0  0
    0.8723    0.8060    0.0000 C   0  0  0  0  0  0  0  0  0
    0.8723    1.6310    0.0000 C   0  0  0  0  0  0  0  0  0
    0.1578    2.0435    0.0000 Cl  0  0  0  0  0  0  0  0  0
  1  2  1  0  0  0  0
  2  3  4  0  0  0  0
  2 33  4  0  0  0  0
  3  4  1  0  0  0  0
  3 30  4  0  0  0  0
  4  5  1  0  0  0  0
  4  9  1  0  0  0  0
  5  6  1  0  0  0  0
  6  7  1  0  0  0  0
  7  8  1  0  0  0  0
  7 10  1  0  0  0  0
  8  9  1  0  0  0  0
 10 11  1  0  0  0  0
 11 12  2  0  0  0  0
 12 13  1  0  0  0  0
 13 14  1  0  0  0  0
 14 15  1  0  0  0  0
 15 16  2  0  0  0  0
 15 17  1  0  0  0  0
 17 18  4  0  0  0  0
 17 22  4  0  0  0  0
 18 19  4  0  0  0  0
 19 20  4  0  0  0  0
 20 21  4  0  0  0  0
 20 23  1  0  0  0  0
 21 22  4  0  0  0  0
 23 24  4  0  0  0  0
 23 28  4  0  0  0  0
 24 25  4  0  0  0  0
 25 26  4  0  0  0  0
 26 27  4  0  0  0  0
 27 28  4  0  0  0  0
 28 29  1  0  0  0  0
 30 31  4  0  0  0  0
 31 32  4  0  0  0  0
 32 33  4  0  0  0  0
 33 34  1  0  0  0  0
M  END
>  <Name_Molregno>
388323

>  <5-HT1A>
7.04

>  <5-HT2A>
7.33

>  <5-HT2C>
7.51

>  <DOPAMINE D2>
7.04

>  <DOPAMINE D3>
8.8

$$$$
388324
  Marvin  02231216192D 0   1.00000     0.00000     0

 34 37  0  0  0  0  0  0  0  0999 V2000
   -8.6474    2.8685    0.0000 Cl  0  0  0  0  0  0  0  0  0
   -8.6474    2.0435    0.0000 C   0  0  0  0  0  0  0  0  0
   -7.9329    1.6310    0.0000 C   0  0  0  0  0  0  0  0  0
   -7.2184    2.0435    0.0000 N   0  0  0  0  0  0  0  0  0
   -7.2184    2.8685    0.0000 C   0  0  0  0  0  0  0  0  0
   -6.5040    3.2810    0.0000 C   0  0  0  0  0  0  0  0  0
   -5.7895    2.8685    0.0000 N   0  0  0  0  0  0  0  0  0
   -5.7895    2.0435    0.0000 C   0  0  0  0  0  0  0  0  0
   -6.5040    1.6310    0.0000 C   0  0  0  0  0  0  0  0  0
   -5.0750    3.2810    0.0000 C   0  0  0  0  0  0  0  0  0
   -4.3606    2.8685    0.0000 C   0  0  0  0  0  0  0  0  0
   -4.3606    2.0435    0.0000 C   0  0  0  0  0  0  0  0  0
   -3.6461    1.6310    0.0000 C   0  0  0  0  0  0  0  0  0
   -3.6461    0.8060    0.0000 N   0  0  0  0  0  0  0  0  0
   -2.9316    0.3935    0.0000 C   0  0  0  0  0  0  0  0  0
   -2.2171    0.8060    0.0000 O   0  0  0  0  0  0  0  0  0
   -2.9316   -0.4315    0.0000 C   0  0  0  0  0  0  0  0  0
   -2.2171   -0.8440    0.0000 C   0  0  0  0  0  0  0  0  0
   -2.2171   -1.6690    0.0000 C   0  0  0  0  0  0  0  0  0
   -2.9316   -2.0815    0.0000 C   0  0  0  0  0  0  0  0  0
   -3.6461   -1.6690    0.0000 C   0  0  0  0  0  0  0  0  0
   -3.6461   -0.8440    0.0000 C   0  0  0  0  0  0  0  0  0
   -2.9316   -2.9065    0.0000 C   0  0  0  0  0  0  0  0  0
   -2.2171   -3.3190    0.0000 N   0  3  0  0  0  0  0  0  0
   -1.5027   -2.9065    0.0000 O   0  5  0  0  0  0  0  0  0
   -2.2171   -4.1440    0.0000 C   0  0  0  0  0  0  0  0  0
   -2.9316   -4.5565    0.0000 C   0  0  0  0  0  0  0  0  0
   -3.6461   -4.1440    0.0000 C   0  0  0  0  0  0  0  0  0
   -3.6461   -3.3190    0.0000 C   0  0  0  0  0  0  0  0  0
   -7.9329    0.8060    0.0000 C   0  0  0  0  0  0  0  0  0
   -8.6474    0.3935    0.0000 C   0  0  0  0  0  0  0  0  0
   -9.3619    0.8060    0.0000 C   0  0  0  0  0  0  0  0  0
   -9.3619    1.6310    0.0000 C   0  0  0  0  0  0  0  0  0
  -10.0763    2.0435    0.0000 Cl  0  0  0  0  0  0  0  0  0
  1  2  1  0  0  0  0
  2  3  4  0  0  0  0
  2 33  4  0  0  0  0
  3  4  1  0  0  0  0
  3 30  4  0  0  0  0
  4  5  1  0  0  0  0
  4  9  1  0  0  0  0
  5  6  1  0  0  0  0
  6  7  1  0  0  0  0
  7  8  1  0  0  0  0
  7 10  1  0  0  0  0
  8  9  1  0  0  0  0
 10 11  1  0  0  0  0
 11 12  2  0  0  0  0
 12 13  1  0  0  0  0
 13 14  1  0  0  0  0
 14 15  1  0  0  0  0
 15 16  2  0  0  0  0
 15 17  1  0  0  0  0
 17 18  4  0  0  0  0
 17 22  4  0  0  0  0
 18 19  4  0  0  0  0
 19 20  4  0  0  0  0
 20 21  4  0  0  0  0
 20 23  1  0  0  0  0
 21 22  4  0  0  0  0
 23 24  4  0  0  0  0
 23 29  4  0  0  0  0
 24 25  1  0  0  0  0
 24 26  4  0  0  0  0
 26 27  4  0  0  0  0
 27 28  4  0  0  0  0
 28 29  4  0  0  0  0
 30 31  4  0  0  0  0
 31 32  4  0  0  0  0
 32 33  4  0  0  0  0
 33 34  1  0  0  0  0
M  CHG  2  24   1  25  -1
M  END
>  <Name_Molregno>
388324

>  <5-HT1A>
7.22

>  <5-HT2A>
7.24

>  <5-HT2C>
7.13

>  <DOPAMINE D2>
7.59

>  <DOPAMINE D3>
8.96

$$$$
388325
  Marvin  02231216192D 0   1.00000     0.00000     0

 34 37  0  0  0  0  0  0  0  0999 V2000
   -0.2676   -1.5508    0.0000 Cl  0  0  0  0  0  0  0  0  0
   -0.2676   -2.3758    0.0000 C   0  0  0  0  0  0  0  0  0
    0.4469   -2.7883    0.0000 C   0  0  0  0  0  0  0  0  0
    1.1613   -2.3758    0.0000 N   0  0  0  0  0  0  0  0  0
    1.1613   -1.5508    0.0000 C   0  0  0  0  0  0  0  0  0
    1.8758   -1.1383    0.0000 C   0  0  0  0  0  0  0  0  0
    2.5903   -1.5508    0.0000 N   0  3  0  0  0  0  0  0  0
    2.8725   -0.7755    0.0000 O   0  5  0  0  0  0  0  0  0
    2.5903   -2.3758    0.0000 C   0  0  0  0  0  0  0  0  0
    1.8758   -2.7883    0.0000 C   0  0  0  0  0  0  0  0  0
    3.4028   -1.6940    0.0000 C   0  0  0  0  0  0  0  0  0
    3.9331   -1.0620    0.0000 C   0  0  0  0  0  0  0  0  0
    4.7455   -1.2053    0.0000 C   0  0  0  0  0  0  0  0  0
    5.2758   -0.5733    0.0000 C   0  0  0  0  0  0  0  0  0
    6.0883   -0.7166    0.0000 N   0  0  0  0  0  0  0  0  0
    6.6186   -0.0846    0.0000 C   0  0  0  0  0  0  0  0  0
    6.3364    0.6907    0.0000 O   0  0  0  0  0  0  0  0  0
    7.4311   -0.2278    0.0000 C   0  0  0  0  0  0  0  0  0
    7.9614    0.4042    0.0000 C   0  0  0  0  0  0  0  0  0
    8.7738    0.2609    0.0000 C   0  0  0  0  0  0  0  0  0
    9.0560   -0.5144    0.0000 C   0  0  0  0  0  0  0  0  0
    8.5257   -1.1463    0.0000 C   0  0  0  0  0  0  0  0  0
    7.7132   -1.0031    0.0000 C   0  0  0  0  0  0  0  0  0
    9.8685   -0.6576    0.0000 C   0  0  0  0  0  0  0  0  0
   10.3988   -0.0256    0.0000 N   0  0  0  0  0  0  0  0  0
   11.2112   -0.1689    0.0000 C   0  0  0  0  0  0  0  0  0
   11.4934   -0.9441    0.0000 C   0  0  0  0  0  0  0  0  0
   10.9631   -1.5761    0.0000 C   0  0  0  0  0  0  0  0  0
   10.1506   -1.4329    0.0000 C   0  0  0  0  0  0  0  0  0
    0.4469   -3.6133    0.0000 C   0  0  0  0  0  0  0  0  0
   -0.2676   -4.0258    0.0000 C   0  0  0  0  0  0  0  0  0
   -0.9821   -3.6133    0.0000 C   0  0  0  0  0  0  0  0  0
   -0.9821   -2.7883    0.0000 C   0  0  0  0  0  0  0  0  0
   -1.6965   -2.3758    0.0000 Cl  0  0  0  0  0  0  0  0  0
  1  2  1  0  0  0  0
  2  3  4  0  0  0  0
  2 33  4  0  0  0  0
  3  4  1  0  0  0  0
  3 30  4  0  0  0  0
  4  5  1  0  0  0  0
  4 10  1  0  0  0  0
  5  6  1  0  0  0  0
  6  7  1  0  0  0  0
  7  8  1  0  0  0  0
  7  9  1  0  0  0  0
  7 11  1  0  0  0  0
  9 10  1  0  0  0  0
 11 12  1  0  0  0  0
 12 13  2  0  0  0  0
 13 14  1  0  0  0  0
 14 15  1  0  0  0  0
 15 16  1  0  0  0  0
 16 17  2  0  0  0  0
 16 18  1  0  0  0  0
 18 19  4  0  0  0  0
 18 23  4  0  0  0  0
 19 20  4  0  0  0  0
 20 21  4  0  0  0  0
 21 22  4  0  0  0  0
 21 24  1  0  0  0  0
 22 23  4  0  0  0  0
 24 25  4  0  0  0  0
 24 29  4  0  0  0  0
 25 26  4  0  0  0  0
 26 27  4  0  0  0  0
 27 28  4  0  0  0  0
 28 29  4  0  0  0  0
 30 31  4  0  0  0  0
 31 32  4  0  0  0  0
 32 33  4  0  0  0  0
 33 34  1  0  0  0  0
M  CHG  2   7   1   8  -1
M  END
>  <Name_Molregno>
388325

>  <5-HT1A>
6.18

>  <5-HT2A>
6.98

>  <5-HT2C>
6.95

>  <DOPAMINE D2>
5.94

>  <DOPAMINE D3>
7.31

$$$$
388326
  Marvin  02231216192D 0   1.00000     0.00000     0

 33 36  0  0  0  0  0  0  0  0999 V2000
    0.1324    0.0160    0.0000 O   0  0  0  0  0  0  0  0  0
    0.8468    0.4285    0.0000 C   0  0  0  0  0  0  0  0  0
    0.1324   -0.8090    0.0000 C   0  0  0  0  0  0  0  0  0
    0.8468   -1.2215    0.0000 C   0  0  0  0  0  0  0  0  0
    0.8468   -2.0465    0.0000 C   0  0  0  0  0  0  0  0  0
    0.1324   -2.4590    0.0000 C   0  0  0  0  0  0  0  0  0
   -0.5821   -2.0465    0.0000 C   0  0  0  0  0  0  0  0  0
   -0.5821   -1.2215    0.0000 C   0  0  0  0  0  0  0  0  0
   -1.2966   -0.8090    0.0000 N   0  0  0  0  0  0  0  0  0
   -2.0111   -1.2215    0.0000 C   0  0  0  0  0  0  0  0  0
   -2.7255   -0.8090    0.0000 C   0  0  0  0  0  0  0  0  0
   -2.7255    0.0160    0.0000 N   0  0  0  0  0  0  0  0  0
   -2.0111    0.4285    0.0000 C   0  0  0  0  0  0  0  0  0
   -1.2966    0.0160    0.0000 C   0  0  0  0  0  0  0  0  0
   -3.4400    0.4285    0.0000 C   0  0  0  0  0  0  0  0  0
   -4.1545    0.0160    0.0000 C   0  0  0  0  0  0  0  0  0
   -4.8689    0.4285    0.0000 C   0  0  0  0  0  0  0  0  0
   -5.5834    0.0160    0.0000 C   0  0  0  0  0  0  0  0  0
   -6.2979    0.4285    0.0000 N   0  0  0  0  0  0  0  0  0
   -7.0124    0.0160    0.0000 C   0  0  0  0  0  0  0  0  0
   -7.0124   -0.8090    0.0000 O   0  0  0  0  0  0  0  0  0
   -7.7268    0.4285    0.0000 C   0  0  0  0  0  0  0  0  0
   -8.4413    0.0160    0.0000 C   0  0  0  0  0  0  0  0  0
   -9.1558    0.4285    0.0000 C   0  0  0  0  0  0  0  0  0
   -9.1558    1.2535    0.0000 C   0  0  0  0  0  0  0  0  0
   -8.4413    1.6660    0.0000 C   0  0  0  0  0  0  0  0  0
   -7.7268    1.2535    0.0000 C   0  0  0  0  0  0  0  0  0
   -9.8702    1.6660    0.0000 C   0  0  0  0  0  0  0  0  0
  -10.5847    1.2535    0.0000 N   0  0  0  0  0  0  0  0  0
  -11.2992    1.6660    0.0000 C   0  0  0  0  0  0  0  0  0
  -11.2992    2.4910    0.0000 C   0  0  0  0  0  0  0  0  0
  -10.5847    2.9035    0.0000 C   0  0  0  0  0  0  0  0  0
   -9.8702    2.4910    0.0000 C   0  0  0  0  0  0  0  0  0
  1  2  1  0  0  0  0
  1  3  1  0  0  0  0
  3  4  4  0  0  0  0
  3  8  4  0  0  0  0
  4  5  4  0  0  0  0
  5  6  4  0  0  0  0
  6  7  4  0  0  0  0
  7  8  4  0  0  0  0
  8  9  1  0  0  0  0
  9 10  1  0  0  0  0
  9 14  1  0  0  0  0
 10 11  1  0  0  0  0
 11 12  1  0  0  0  0
 12 13  1  0  0  0  0
 12 15  1  0  0  0  0
 13 14  1  0  0  0  0
 15 16  1  0  0  0  0
 16 17  2  0  0  0  0
 17 18  1  0  0  0  0
 18 19  1  0  0  0  0
 19 20  1  0  0  0  0
 20 21  2  0  0  0  0
 20 22  1  0  0  0  0
 22 23  4  0  0  0  0
 22 27  4  0  0  0  0
 23 24  4  0  0  0  0
 24 25  4  0  0  0  0
 25 26  4  0  0  0  0
 25 28  1  0  0  0  0
 26 27  4  0  0  0  0
 28 29  4  0  0  0  0
 28 33  4  0  0  0  0
 29 30  4  0  0  0  0
 30 31  4  0  0  0  0
 31 32  4  0  0  0  0
 32 33  4  0  0  0  0
M  END
>  <Name_Molregno>
388326

>  <5-HT1A>
7.66

>  <5-HT2A>
7.12

>  <5-HT2C>
6.59

>  <DOPAMINE D2>
7.16

>  <DOPAMINE D3>
8.54

$$$$
388327
  Marvin  02231216192D 0   1.00000     0.00000     0

 34 38  0  0  0  0  0  0  0  0999 V2000
   -8.4799   -3.3542    0.0000 O   0  0  0  0  0  0  0  0  0
   -8.7349   -4.1389    0.0000 C   0  0  0  0  0  0  0  0  0
   -9.0320   -2.7411    0.0000 C   0  0  0  0  0  0  0  0  0
   -9.8389   -2.9127    0.0000 C   0  0  0  0  0  0  0  0  0
  -10.3910   -2.2996    0.0000 C   0  0  0  0  0  0  0  0  0
  -10.1360   -1.5150    0.0000 C   0  0  0  0  0  0  0  0  0
   -9.3291   -1.3434    0.0000 C   0  0  0  0  0  0  0  0  0
   -8.7770   -1.9565    0.0000 C   0  0  0  0  0  0  0  0  0
   -7.9700   -1.7850    0.0000 N   0  0  0  0  0  0  0  0  0
   -7.7151   -1.0004    0.0000 C   0  0  0  0  0  0  0  0  0
   -6.9081   -0.8288    0.0000 C   0  0  0  0  0  0  0  0  0
   -6.3561   -1.4419    0.0000 N   0  0  0  0  0  0  0  0  0
   -6.6110   -2.2266    0.0000 C   0  0  0  0  0  0  0  0  0
   -7.4180   -2.3981    0.0000 C   0  0  0  0  0  0  0  0  0
   -5.5491   -1.2704    0.0000 C   0  0  0  0  0  0  0  0  0
   -5.2942   -0.4858    0.0000 C   0  0  0  0  0  0  0  0  0
   -4.4872   -0.3143    0.0000 C   0  0  0  0  0  0  0  0  0
   -4.2323    0.4704    0.0000 C   0  0  0  0  0  0  0  0  0
   -4.7843    1.0834    0.0000 N   0  0  0  0  0  0  0  0  0
   -4.5294    1.8681    0.0000 C   0  0  0  0  0  0  0  0  0
   -5.0814    2.4812    0.0000 O   0  0  0  0  0  0  0  0  0
   -3.7224    2.0396    0.0000 C   0  0  0  0  0  0  0  0  0
   -3.1704    1.4265    0.0000 C   0  0  0  0  0  0  0  0  0
   -2.3634    1.5980    0.0000 C   0  0  0  0  0  0  0  0  0
   -1.6960    1.1131    0.0000 C   0  0  0  0  0  0  0  0  0
   -1.0285    1.5980    0.0000 C   0  0  0  0  0  0  0  0  0
   -1.2835    2.3827    0.0000 C   0  0  0  0  0  0  0  0  0
   -2.1085    2.3827    0.0000 C   0  0  0  0  0  0  0  0  0
   -2.6605    2.9957    0.0000 C   0  0  0  0  0  0  0  0  0
   -3.4675    2.8242    0.0000 C   0  0  0  0  0  0  0  0  0
   -0.7314    2.9957    0.0000 C   0  0  0  0  0  0  0  0  0
    0.0755    2.8242    0.0000 C   0  0  0  0  0  0  0  0  0
    0.3305    2.0396    0.0000 C   0  0  0  0  0  0  0  0  0
   -0.2216    1.4265    0.0000 C   0  0  0  0  0  0  0  0  0
  1  2  1  0  0  0  0
  1  3  1  0  0  0  0
  3  4  4  0  0  0  0
  3  8  4  0  0  0  0
  4  5  4  0  0  0  0
  5  6  4  0  0  0  0
  6  7  4  0  0  0  0
  7  8  4  0  0  0  0
  8  9  1  0  0  0  0
  9 10  1  0  0  0  0
  9 14  1  0  0  0  0
 10 11  1  0  0  0  0
 11 12  1  0  0  0  0
 12 13  1  0  0  0  0
 12 15  1  0  0  0  0
 13 14  1  0  0  0  0
 15 16  1  0  0  0  0
 16 17  2  0  0  0  0
 17 18  1  0  0  0  0
 18 19  1  0  0  0  0
 19 20  1  0  0  0  0
 20 21  2  0  0  0  0
 20 22  1  0  0  0  0
 22 23  4  0  0  0  0
 22 30  4  0  0  0  0
 23 24  4  0  0  0  0
 24 25  1  0  0  0  0
 24 28  4  0  0  0  0
 25 26  1  0  0  0  0
 26 27  4  0  0  0  0
 26 34  4  0  0  0  0
 27 28  1  0  0  0  0
 27 31  4  0  0  0  0
 28 29  4  0  0  0  0
 29 30  4  0  0  0  0
 31 32  4  0  0  0  0
 32 33  4  0  0  0  0
 33 34  4  0  0  0  0
M  END
>  <Name_Molregno>
388327

>  <5-HT1A>
7.14

>  <5-HT2A>
7.18

>  <5-HT2C>
6.75

>  <DOPAMINE D2>
7.32

>  <DOPAMINE D3>
8.92

$$$$
388328
  Marvin  02231216192D 0   1.00000     0.00000     0

 34 37  0  0  1  0  0  0  0  0999 V2000
   -0.1300   -0.0292    0.0000 Cl  0  0  0  0  0  0  0  0  0
   -0.1300   -0.8542    0.0000 C   0  0  0  0  0  0  0  0  0
    0.5845   -1.2667    0.0000 C   0  0  0  0  0  0  0  0  0
    1.2990   -0.8542    0.0000 N   0  0  0  0  0  0  0  0  0
    1.2990   -0.0292    0.0000 C   0  0  0  0  0  0  0  0  0
    2.0134    0.3833    0.0000 C   0  0  0  0  0  0  0  0  0
    2.7279   -0.0292    0.0000 N   0  0  0  0  0  0  0  0  0
    2.7279   -0.8542    0.0000 C   0  0  0  0  0  0  0  0  0
    2.0134   -1.2667    0.0000 C   0  0  0  0  0  0  0  0  0
    3.4424    0.3833    0.0000 C   0  0  0  0  0  0  0  0  0
    4.1568   -0.0292    0.0000 C   0  0  0  0  0  0  0  0  0
    4.1568   -0.8542    0.0000 O   0  0  0  0  0  0  0  0  0
    4.8713    0.3833    0.0000 C   0  0  0  0  0  0  0  0  0
    5.5858   -0.0292    0.0000 C   0  0  0  0  0  0  0  0  0
    6.3003    0.3833    0.0000 N   0  0  0  0  0  0  0  0  0
    7.0147   -0.0292    0.0000 C   0  0  0  0  0  0  0  0  0
    7.0147   -0.8542    0.0000 O   0  0  0  0  0  0  0  0  0
    7.7292    0.3833    0.0000 C   0  0  0  0  0  0  0  0  0
    7.7292    1.2083    0.0000 C   0  0  0  0  0  0  0  0  0
    8.4437    1.6208    0.0000 C   0  0  0  0  0  0  0  0  0
    9.1581    1.2083    0.0000 C   0  0  0  0  0  0  0  0  0
    9.1581    0.3833    0.0000 C   0  0  0  0  0  0  0  0  0
    8.4437   -0.0292    0.0000 C   0  0  0  0  0  0  0  0  0
    9.8726    1.6208    0.0000 C   0  0  0  0  0  0  0  0  0
    9.8726    2.4458    0.0000 N   0  0  0  0  0  0  0  0  0
   10.5871    2.8583    0.0000 C   0  0  0  0  0  0  0  0  0
   11.3016    2.4458    0.0000 C   0  0  0  0  0  0  0  0  0
   11.3016    1.6208    0.0000 C   0  0  0  0  0  0  0  0  0
   10.5871    1.2083    0.0000 C   0  0  0  0  0  0  0  0  0
    0.5845   -2.0917    0.0000 C   0  0  0  0  0  0  0  0  0
   -0.1300   -2.5042    0.0000 C   0  0  0  0  0  0  0  0  0
   -0.8444   -2.0917    0.0000 C   0  0  0  0  0  0  0  0  0
   -0.8444   -1.2667    0.0000 C   0  0  0  0  0  0  0  0  0
   -1.5589   -0.8542    0.0000 Cl  0  0  0  0  0  0  0  0  0
  1  2  1  0  0  0  0
  2  3  4  0  0  0  0
  2 33  4  0  0  0  0
  3  4  1  0  0  0  0
  3 30  4  0  0  0  0
  4  5  1  0  0  0  0
  4  9  1  0  0  0  0
  5  6  1  0  0  0  0
  6  7  1  0  0  0  0
  7  8  1  0  0  0  0
  7 10  1  0  0  0  0
  8  9  1  0  0  0  0
 10 11  1  0  0  0  0
 11 12  1  0  0  0  0
 11 13  1  0  0  0  0
 13 14  1  0  0  0  0
 14 15  1  0  0  0  0
 15 16  1  0  0  0  0
 16 17  2  0  0  0  0
 16 18  1  0  0  0  0
 18 19  4  0  0  0  0
 18 23  4  0  0  0  0
 19 20  4  0  0  0  0
 20 21  4  0  0  0  0
 21 22  4  0  0  0  0
 21 24  1  0  0  0  0
 22 23  4  0  0  0  0
 24 25  4  0  0  0  0
 24 29  4  0  0  0  0
 25 26  4  0  0  0  0
 26 27  4  0  0  0  0
 27 28  4  0  0  0  0
 28 29  4  0  0  0  0
 30 31  4  0  0  0  0
 31 32  4  0  0  0  0
 32 33  4  0  0  0  0
 33 34  1  0  0  0  0
M  END
>  <Name_Molregno>
388328

>  <5-HT1A>
7.46

>  <5-HT2A>
7.37

>  <5-HT2C>
6.94

>  <DOPAMINE D2>
6.57

>  <DOPAMINE D3>
8.52

>  <DOPAMINE D4>
5.34

$$$$
388330
  Marvin  02231216192D 0   1.00000     0.00000     0

 35 39  0  0  1  0  0  0  0  0999 V2000
  -10.2586   -0.0048    0.0000 Cl  0  0  0  0  0  0  0  0  0
  -10.2586   -0.8298    0.0000 C   0  0  0  0  0  0  0  0  0
   -9.5441   -1.2423    0.0000 C   0  0  0  0  0  0  0  0  0
   -8.8297   -0.8298    0.0000 N   0  0  0  0  0  0  0  0  0
   -8.8297   -0.0048    0.0000 C   0  0  0  0  0  0  0  0  0
   -8.1152    0.4077    0.0000 C   0  0  0  0  0  0  0  0  0
   -7.4007   -0.0048    0.0000 N   0  0  0  0  0  0  0  0  0
   -7.4007   -0.8298    0.0000 C   0  0  0  0  0  0  0  0  0
   -8.1152   -1.2423    0.0000 C   0  0  0  0  0  0  0  0  0
   -6.6862    0.4077    0.0000 C   0  0  0  0  0  0  0  0  0
   -5.9718   -0.0048    0.0000 C   0  0  0  0  0  0  0  0  0
   -5.9718   -0.8298    0.0000 O   0  0  0  0  0  0  0  0  0
   -5.2573    0.4077    0.0000 C   0  0  0  0  0  0  0  0  0
   -4.5428   -0.0048    0.0000 C   0  0  0  0  0  0  0  0  0
   -3.8284    0.4077    0.0000 N   0  0  0  0  0  0  0  0  0
   -3.1139   -0.0048    0.0000 C   0  0  0  0  0  0  0  0  0
   -3.1139   -0.8298    0.0000 O   0  0  0  0  0  0  0  0  0
   -2.3994    0.4077    0.0000 C   0  0  0  0  0  0  0  0  0
   -1.6850   -0.0048    0.0000 C   0  0  0  0  0  0  0  0  0
   -0.9705    0.4077    0.0000 C   0  0  0  0  0  0  0  0  0
   -0.1859    0.1527    0.0000 C   0  0  0  0  0  0  0  0  0
    0.2991    0.8202    0.0000 C   0  0  0  0  0  0  0  0  0
   -0.1859    1.4876    0.0000 C   0  0  0  0  0  0  0  0  0
   -0.9705    1.2327    0.0000 C   0  0  0  0  0  0  0  0  0
   -1.6850    1.6452    0.0000 C   0  0  0  0  0  0  0  0  0
   -2.3994    1.2327    0.0000 C   0  0  0  0  0  0  0  0  0
    0.1497    2.2413    0.0000 C   0  0  0  0  0  0  0  0  0
    0.9702    2.3275    0.0000 C   0  0  0  0  0  0  0  0  0
    1.4551    1.6601    0.0000 C   0  0  0  0  0  0  0  0  0
    1.1195    0.9064    0.0000 C   0  0  0  0  0  0  0  0  0
   -9.5441   -2.0673    0.0000 C   0  0  0  0  0  0  0  0  0
  -10.2586   -2.4798    0.0000 C   0  0  0  0  0  0  0  0  0
  -10.9731   -2.0673    0.0000 C   0  0  0  0  0  0  0  0  0
  -10.9731   -1.2423    0.0000 C   0  0  0  0  0  0  0  0  0
  -11.6875   -0.8298    0.0000 Cl  0  0  0  0  0  0  0  0  0
  1  2  1  0  0  0  0
  2  3  4  0  0  0  0
  2 34  4  0  0  0  0
  3  4  1  0  0  0  0
  3 31  4  0  0  0  0
  4  5  1  0  0  0  0
  4  9  1  0  0  0  0
  5  6  1  0  0  0  0
  6  7  1  0  0  0  0
  7  8  1  0  0  0  0
  7 10  1  0  0  0  0
  8  9  1  0  0  0  0
 10 11  1  0  0  0  0
 11 12  1  0  0  0  0
 11 13  1  0  0  0  0
 13 14  1  0  0  0  0
 14 15  1  0  0  0  0
 15 16  1  0  0  0  0
 16 17  2  0  0  0  0
 16 18  1  0  0  0  0
 18 19  4  0  0  0  0
 18 26  4  0  0  0  0
 19 20  4  0  0  0  0
 20 21  1  0  0  0  0
 20 24  4  0  0  0  0
 21 22  1  0  0  0  0
 22 23  4  0  0  0  0
 22 30  4  0  0  0  0
 23 24  1  0  0  0  0
 23 27  4  0  0  0  0
 24 25  4  0  0  0  0
 25 26  4  0  0  0  0
 27 28  4  0  0  0  0
 28 29  4  0  0  0  0
 29 30  4  0  0  0  0
 31 32  4  0  0  0  0
 32 33  4  0  0  0  0
 33 34  4  0  0  0  0
 34 35  1  0  0  0  0
M  END
>  <Name_Molregno>
388330

>  <5-HT1A>
5.74

>  <5-HT2A>
6.26

>  <5-HT2C>
5.55

>  <DOPAMINE D2>
6.5

>  <DOPAMINE D3>
8.74

$$$$
388332
  Marvin  02231216192D 0   1.00000     0.00000     0

 34 37  0  0  1  0  0  0  0  0999 V2000
   -9.9552    0.3013    0.0000 O   0  0  0  0  0  0  0  0  0
  -10.6697   -0.1112    0.0000 C   0  0  0  0  0  0  0  0  0
   -9.9552    1.1263    0.0000 C   0  0  0  0  0  0  0  0  0
  -10.6697    1.5388    0.0000 C   0  0  0  0  0  0  0  0  0
  -10.6697    2.3638    0.0000 C   0  0  0  0  0  0  0  0  0
   -9.9552    2.7763    0.0000 C   0  0  0  0  0  0  0  0  0
   -9.2407    2.3638    0.0000 C   0  0  0  0  0  0  0  0  0
   -9.2407    1.5388    0.0000 C   0  0  0  0  0  0  0  0  0
   -8.5263    1.1263    0.0000 N   0  0  0  0  0  0  0  0  0
   -7.8118    1.5388    0.0000 C   0  0  0  0  0  0  0  0  0
   -7.0973    1.1263    0.0000 C   0  0  0  0  0  0  0  0  0
   -7.0973    0.3013    0.0000 N   0  0  0  0  0  0  0  0  0
   -7.8118   -0.1112    0.0000 C   0  0  0  0  0  0  0  0  0
   -8.5263    0.3013    0.0000 C   0  0  0  0  0  0  0  0  0
   -6.3828   -0.1112    0.0000 C   0  0  0  0  0  0  0  0  0
   -5.6684    0.3013    0.0000 C   0  0  0  0  0  0  0  0  0
   -5.6684    1.1263    0.0000 O   0  0  0  0  0  0  0  0  0
   -4.9539   -0.1112    0.0000 C   0  0  0  0  0  0  0  0  0
   -4.2394    0.3013    0.0000 C   0  0  0  0  0  0  0  0  0
   -3.5250   -0.1112    0.0000 N   0  0  0  0  0  0  0  0  0
   -2.8105    0.3013    0.0000 C   0  0  0  0  0  0  0  0  0
   -2.8105    1.1263    0.0000 O   0  0  0  0  0  0  0  0  0
   -2.0960   -0.1112    0.0000 C   0  0  0  0  0  0  0  0  0
   -1.3815    0.3013    0.0000 C   0  0  0  0  0  0  0  0  0
   -0.6671   -0.1112    0.0000 C   0  0  0  0  0  0  0  0  0
   -0.6671   -0.9362    0.0000 C   0  0  0  0  0  0  0  0  0
   -1.3815   -1.3487    0.0000 C   0  0  0  0  0  0  0  0  0
   -2.0960   -0.9362    0.0000 C   0  0  0  0  0  0  0  0  0
    0.0474   -1.3487    0.0000 C   0  0  0  0  0  0  0  0  0
    0.7619   -0.9362    0.0000 N   0  0  0  0  0  0  0  0  0
    1.4763   -1.3487    0.0000 C   0  0  0  0  0  0  0  0  0
    1.4763   -2.1737    0.0000 C   0  0  0  0  0  0  0  0  0
    0.7619   -2.5862    0.0000 C   0  0  0  0  0  0  0  0  0
    0.0474   -2.1737    0.0000 C   0  0  0  0  0  0  0  0  0
  1  2  1  0  0  0  0
  1  3  1  0  0  0  0
  3  4  4  0  0  0  0
  3  8  4  0  0  0  0
  4  5  4  0  0  0  0
  5  6  4  0  0  0  0
  6  7  4  0  0  0  0
  7  8  4  0  0  0  0
  8  9  1  0  0  0  0
  9 10  1  0  0  0  0
  9 14  1  0  0  0  0
 10 11  1  0  0  0  0
 11 12  1  0  0  0  0
 12 13  1  0  0  0  0
 12 15  1  0  0  0  0
 13 14  1  0  0  0  0
 15 16  1  0  0  0  0
 16 17  1  0  0  0  0
 16 18  1  0  0  0  0
 18 19  1  0  0  0  0
 19 20  1  0  0  0  0
 20 21  1  0  0  0  0
 21 22  2  0  0  0  0
 21 23  1  0  0  0  0
 23 24  4  0  0  0  0
 23 28  4  0  0  0  0
 24 25  4  0  0  0  0
 25 26  4  0  0  0  0
 26 27  4  0  0  0  0
 26 29  1  0  0  0  0
 27 28  4  0  0  0  0
 29 30  4  0  0  0  0
 29 34  4  0  0  0  0
 30 31  4  0  0  0  0
 31 32  4  0  0  0  0
 32 33  4  0  0  0  0
 33 34  4  0  0  0  0
M  END
>  <Name_Molregno>
388332

>  <5-HT1A>
7.44

>  <5-HT2A>
6.16

>  <5-HT2C>
5.4

>  <DOPAMINE D2>
6.55

>  <DOPAMINE D3>
8.55

>  <DOPAMINE D4>
5.83

$$$$
388337
  Marvin  02231216192D 0   1.00000     0.00000     0

 37 40  0  0  1  0  0  0  0  0999 V2000
   -7.2387    2.0399    0.0000 Cl  0  0  0  0  0  0  0  0  0
   -7.6512    1.3254    0.0000 C   0  0  0  0  0  0  0  0  0
   -7.2387    0.6109    0.0000 C   0  0  0  0  0  0  0  0  0
   -6.4137    0.6109    0.0000 N   0  0  0  0  0  0  0  0  0
   -6.0012    1.3254    0.0000 C   0  0  0  0  0  0  0  0  0
   -5.1762    1.3254    0.0000 C   0  0  0  0  0  0  0  0  0
   -4.7637    0.6109    0.0000 N   0  0  0  0  0  0  0  0  0
   -5.1762   -0.1036    0.0000 C   0  0  0  0  0  0  0  0  0
   -6.0012   -0.1036    0.0000 C   0  0  0  0  0  0  0  0  0
   -3.9387    0.6109    0.0000 C   0  0  0  0  0  0  0  0  0
   -3.5262   -0.1036    0.0000 C   0  0  0  0  0  0  0  0  0
   -3.9387   -0.8180    0.0000 O   0  0  0  0  0  0  0  0  0
   -3.5262   -1.5325    0.0000 C   0  0  0  0  0  0  0  0  0
   -2.7012   -1.5325    0.0000 O   0  0  0  0  0  0  0  0  0
   -3.9387   -2.2470    0.0000 C   0  0  0  0  0  0  0  0  0
   -2.7012   -0.1036    0.0000 C   0  0  0  0  0  0  0  0  0
   -2.2887   -0.8180    0.0000 C   0  0  0  0  0  0  0  0  0
   -1.4637   -0.8180    0.0000 N   0  0  0  0  0  0  0  0  0
   -1.0512   -1.5325    0.0000 C   0  0  0  0  0  0  0  0  0
   -0.2262   -1.5325    0.0000 O   0  0  0  0  0  0  0  0  0
   -1.4637   -2.2470    0.0000 C   0  0  0  0  0  0  0  0  0
   -1.0512   -2.9614    0.0000 C   0  0  0  0  0  0  0  0  0
   -1.4637   -3.6759    0.0000 C   0  0  0  0  0  0  0  0  0
   -2.2887   -3.6759    0.0000 C   0  0  0  0  0  0  0  0  0
   -2.7012   -2.9614    0.0000 C   0  0  0  0  0  0  0  0  0
   -2.2887   -2.2470    0.0000 C   0  0  0  0  0  0  0  0  0
   -2.7012   -4.3904    0.0000 C   0  0  0  0  0  0  0  0  0
   -2.2887   -5.1049    0.0000 N   0  0  0  0  0  0  0  0  0
   -2.7012   -5.8193    0.0000 C   0  0  0  0  0  0  0  0  0
   -3.5262   -5.8193    0.0000 C   0  0  0  0  0  0  0  0  0
   -3.9387   -5.1049    0.0000 C   0  0  0  0  0  0  0  0  0
   -3.5262   -4.3904    0.0000 C   0  0  0  0  0  0  0  0  0
   -7.6512   -0.1036    0.0000 C   0  0  0  0  0  0  0  0  0
   -8.4762   -0.1036    0.0000 C   0  0  0  0  0  0  0  0  0
   -8.8887    0.6109    0.0000 C   0  0  0  0  0  0  0  0  0
   -8.4762    1.3254    0.0000 C   0  0  0  0  0  0  0  0  0
   -8.8887    2.0399    0.0000 Cl  0  0  0  0  0  0  0  0  0
  1  2  1  0  0  0  0
  2  3  4  0  0  0  0
  2 36  4  0  0  0  0
  3  4  1  0  0  0  0
  3 33  4  0  0  0  0
  4  5  1  0  0  0  0
  4  9  1  0  0  0  0
  5  6  1  0  0  0  0
  6  7  1  0  0  0  0
  7  8  1  0  0  0  0
  7 10  1  0  0  0  0
  8  9  1  0  0  0  0
 10 11  1  0  0  0  0
 11 12  1  0  0  0  0
 11 16  1  0  0  0  0
 12 13  1  0  0  0  0
 13 14  2  0  0  0  0
 13 15  1  0  0  0  0
 16 17  1  0  0  0  0
 17 18  1  0  0  0  0
 18 19  1  0  0  0  0
 19 20  2  0  0  0  0
 19 21  1  0  0  0  0
 21 22  4  0  0  0  0
 21 26  4  0  0  0  0
 22 23  4  0  0  0  0
 23 24  4  0  0  0  0
 24 25  4  0  0  0  0
 24 27  1  0  0  0  0
 25 26  4  0  0  0  0
 27 28  4  0  0  0  0
 27 32  4  0  0  0  0
 28 29  4  0  0  0  0
 29 30  4  0  0  0  0
 30 31  4  0  0  0  0
 31 32  4  0  0  0  0
 33 34  4  0  0  0  0
 34 35  4  0  0  0  0
 35 36  4  0  0  0  0
 36 37  1  0  0  0  0
M  END
>  <Name_Molregno>
388337

>  <5-HT1A>
6.93

>  <5-HT2A>
7.05

>  <5-HT2C>
7.07

>  <DOPAMINE D2>
6.87

>  <DOPAMINE D3>
7.93

$$$$
388338
  Marvin  02231216192D 0   1.00000     0.00000     0

 34 37  0  0  1  0  0  0  0  0999 V2000
   -9.9564   -0.0271    0.0000 Cl  0  0  0  0  0  0  0  0  0
   -9.9564   -0.8521    0.0000 C   0  0  0  0  0  0  0  0  0
   -9.2419   -1.2646    0.0000 C   0  0  0  0  0  0  0  0  0
   -8.5275   -0.8521    0.0000 N   0  0  0  0  0  0  0  0  0
   -8.5275   -0.0271    0.0000 C   0  0  0  0  0  0  0  0  0
   -7.8130    0.3854    0.0000 C   0  0  0  0  0  0  0  0  0
   -7.0985   -0.0271    0.0000 N   0  0  0  0  0  0  0  0  0
   -7.0985   -0.8521    0.0000 C   0  0  0  0  0  0  0  0  0
   -7.8130   -1.2646    0.0000 C   0  0  0  0  0  0  0  0  0
   -6.3841    0.3854    0.0000 C   0  0  0  0  0  0  0  0  0
   -5.6696   -0.0271    0.0000 C   0  0  0  0  0  0  0  0  0
   -4.9551    0.3854    0.0000 C   0  0  0  0  0  0  0  0  0
   -4.9551    1.2104    0.0000 O   0  0  0  0  0  0  0  0  0
   -4.2406   -0.0271    0.0000 C   0  0  0  0  0  0  0  0  0
   -3.5262    0.3854    0.0000 N   0  0  0  0  0  0  0  0  0
   -2.8117   -0.0271    0.0000 C   0  0  0  0  0  0  0  0  0
   -2.8117   -0.8521    0.0000 O   0  0  0  0  0  0  0  0  0
   -2.0972    0.3854    0.0000 C   0  0  0  0  0  0  0  0  0
   -2.0972    1.2104    0.0000 C   0  0  0  0  0  0  0  0  0
   -1.3828    1.6229    0.0000 C   0  0  0  0  0  0  0  0  0
   -0.6683    1.2104    0.0000 C   0  0  0  0  0  0  0  0  0
   -0.6683    0.3854    0.0000 C   0  0  0  0  0  0  0  0  0
   -1.3828   -0.0271    0.0000 C   0  0  0  0  0  0  0  0  0
    0.0462    1.6229    0.0000 C   0  0  0  0  0  0  0  0  0
    0.0462    2.4479    0.0000 N   0  0  0  0  0  0  0  0  0
    0.7607    2.8604    0.0000 C   0  0  0  0  0  0  0  0  0
    1.4751    2.4479    0.0000 C   0  0  0  0  0  0  0  0  0
    1.4751    1.6229    0.0000 C   0  0  0  0  0  0  0  0  0
    0.7607    1.2104    0.0000 C   0  0  0  0  0  0  0  0  0
   -9.2419   -2.0896    0.0000 C   0  0  0  0  0  0  0  0  0
   -9.9564   -2.5021    0.0000 C   0  0  0  0  0  0  0  0  0
  -10.6709   -2.0896    0.0000 C   0  0  0  0  0  0  0  0  0
  -10.6709   -1.2646    0.0000 C   0  0  0  0  0  0  0  0  0
  -11.3853   -0.8521    0.0000 Cl  0  0  0  0  0  0  0  0  0
  1  2  1  0  0  0  0
  2  3  4  0  0  0  0
  2 33  4  0  0  0  0
  3  4  1  0  0  0  0
  3 30  4  0  0  0  0
  4  5  1  0  0  0  0
  4  9  1  0  0  0  0
  5  6  1  0  0  0  0
  6  7  1  0  0  0  0
  7  8  1  0  0  0  0
  7 10  1  0  0  0  0
  8  9  1  0  0  0  0
 10 11  1  0  0  0  0
 11 12  1  0  0  0  0
 12 13  1  0  0  0  0
 12 14  1  0  0  0  0
 14 15  1  0  0  0  0
 15 16  1  0  0  0  0
 16 17  2  0  0  0  0
 16 18  1  0  0  0  0
 18 19  4  0  0  0  0
 18 23  4  0  0  0  0
 19 20  4  0  0  0  0
 20 21  4  0  0  0  0
 21 22  4  0  0  0  0
 21 24  1  0  0  0  0
 22 23  4  0  0  0  0
 24 25  4  0  0  0  0
 24 29  4  0  0  0  0
 25 26  4  0  0  0  0
 26 27  4  0  0  0  0
 27 28  4  0  0  0  0
 28 29  4  0  0  0  0
 30 31  4  0  0  0  0
 31 32  4  0  0  0  0
 32 33  4  0  0  0  0
 33 34  1  0  0  0  0
M  END
>  <Name_Molregno>
388338

>  <5-HT1A>
7.82

>  <5-HT2A>
7.81

>  <5-HT2C>
7.6

>  <DOPAMINE D2>
7.55

>  <DOPAMINE D3>
9.3

$$$$
388343
  Marvin  02231216192D 0   1.00000     0.00000     0

 34 38  0  0  1  0  0  0  0  0999 V2000
    4.7092    4.0677    0.0000 Cl  0  0  0  0  0  0  0  0  0
    3.9947    3.6552    0.0000 C   0  0  0  0  0  0  0  0  0
    3.9947    2.8302    0.0000 C   0  0  0  0  0  0  0  0  0
    4.7092    2.4177    0.0000 N   0  0  0  0  0  0  0  0  0
    5.4236    2.8302    0.0000 C   0  0  0  0  0  0  0  0  0
    6.1381    2.4177    0.0000 C   0  0  0  0  0  0  0  0  0
    6.1381    1.5927    0.0000 N   0  0  0  0  0  0  0  0  0
    5.4236    1.1802    0.0000 C   0  0  0  0  0  0  0  0  0
    4.7092    1.5927    0.0000 C   0  0  0  0  0  0  0  0  0
    6.8526    1.1802    0.0000 C   0  0  0  0  0  0  0  0  0
    6.8526    0.3552    0.0000 C   0  0  0  0  0  0  0  0  0
    7.2651   -0.3592    0.0000 C   0  0  0  0  0  0  0  0  0
    6.4401   -0.3592    0.0000 C   0  0  0  0  0  0  0  0  0
    5.7256   -0.7717    0.0000 C   0  0  0  0  0  0  0  0  0
    5.7256   -1.5967    0.0000 N   0  0  0  0  0  0  0  0  0
    5.0111   -2.0092    0.0000 C   0  0  0  0  0  0  0  0  0
    4.2967   -1.5967    0.0000 O   0  0  0  0  0  0  0  0  0
    5.0111   -2.8342    0.0000 C   0  0  0  0  0  0  0  0  0
    5.7256   -3.2467    0.0000 C   0  0  0  0  0  0  0  0  0
    5.7256   -4.0717    0.0000 C   0  0  0  0  0  0  0  0  0
    5.0111   -4.4842    0.0000 C   0  0  0  0  0  0  0  0  0
    4.2967   -4.0717    0.0000 C   0  0  0  0  0  0  0  0  0
    4.2967   -3.2467    0.0000 C   0  0  0  0  0  0  0  0  0
    5.0111   -5.3092    0.0000 C   0  0  0  0  0  0  0  0  0
    5.7256   -5.7217    0.0000 N   0  0  0  0  0  0  0  0  0
    5.7256   -6.5467    0.0000 C   0  0  0  0  0  0  0  0  0
    5.0111   -6.9592    0.0000 C   0  0  0  0  0  0  0  0  0
    4.2967   -6.5467    0.0000 C   0  0  0  0  0  0  0  0  0
    4.2967   -5.7217    0.0000 C   0  0  0  0  0  0  0  0  0
    3.2802    2.4177    0.0000 C   0  0  0  0  0  0  0  0  0
    2.5658    2.8302    0.0000 C   0  0  0  0  0  0  0  0  0
    2.5658    3.6552    0.0000 C   0  0  0  0  0  0  0  0  0
    3.2802    4.0677    0.0000 C   0  0  0  0  0  0  0  0  0
    3.2802    4.8927    0.0000 Cl  0  0  0  0  0  0  0  0  0
  1  2  1  0  0  0  0
  2  3  4  0  0  0  0
  2 33  4  0  0  0  0
  3  4  1  0  0  0  0
  3 30  4  0  0  0  0
  4  5  1  0  0  0  0
  4  9  1  0  0  0  0
  5  6  1  0  0  0  0
  6  7  1  0  0  0  0
  7  8  1  0  0  0  0
  7 10  1  0  0  0  0
  8  9  1  0  0  0  0
 10 11  1  0  0  0  0
 11 12  1  0  0  0  0
 11 13  1  0  0  0  0
 12 13  1  0  0  0  0
 13 14  1  0  0  0  0
 14 15  1  0  0  0  0
 15 16  1  0  0  0  0
 16 17  2  0  0  0  0
 16 18  1  0  0  0  0
 18 19  4  0  0  0  0
 18 23  4  0  0  0  0
 19 20  4  0  0  0  0
 20 21  4  0  0  0  0
 21 22  4  0  0  0  0
 21 24  1  0  0  0  0
 22 23  4  0  0  0  0
 24 25  4  0  0  0  0
 24 29  4  0  0  0  0
 25 26  4  0  0  0  0
 26 27  4  0  0  0  0
 27 28  4  0  0  0  0
 28 29  4  0  0  0  0
 30 31  4  0  0  0  0
 31 32  4  0  0  0  0
 32 33  4  0  0  0  0
 33 34  1  0  0  0  0
M  END
>  <Name_Molregno>
388343

>  <5-HT1A>
6.62

>  <5-HT2A>
6.69

>  <5-HT2C>
6.65

>  <DOPAMINE D2>
6.63

>  <DOPAMINE D3>
7.9

>  <DOPAMINE D4>
5.84

$$$$
389011
  Marvin  02231216192D 0   1.00000     0.00000     0

 25 26  0  0  1  0  0  0  0  0999 V2000
   -2.9244    1.8604    0.0000 S   0  0  0  0  0  0  0  0  0
   -3.7494    1.8604    0.0000 O   0  0  0  0  0  0  0  0  0
   -2.0994    1.8604    0.0000 O   0  0  0  0  0  0  0  0  0
   -2.9244    2.6854    0.0000 C   0  0  0  0  0  0  0  0  0
   -3.6388    3.0979    0.0000 C   0  0  0  0  0  0  0  0  0
   -2.9244    1.0354    0.0000 C   0  0  0  0  0  0  0  0  0
   -2.2099    0.6229    0.0000 C   0  0  0  0  0  0  0  0  0
   -2.2099   -0.2021    0.0000 C   0  0  0  0  0  0  0  0  0
   -1.4954   -0.6146    0.0000 C   0  0  0  0  0  0  0  0  0
   -0.7810   -0.2021    0.0000 O   0  0  0  0  0  0  0  0  0
   -1.4954   -1.4396    0.0000 N   0  0  0  0  0  0  0  0  0
   -0.7810   -1.8521    0.0000 C   0  0  0  0  0  0  0  0  0
   -0.7810   -2.6771    0.0000 C   0  0  0  0  0  0  0  0  0
   -0.1135   -3.1620    0.0000 N   0  0  0  0  0  0  0  0  0
   -0.3685   -3.9466    0.0000 C   0  0  0  0  0  0  0  0  0
   -1.1935   -3.9466    0.0000 C   0  0  0  0  0  0  0  0  0
   -1.4484   -3.1620    0.0000 C   0  0  0  0  0  0  0  0  0
    0.6711   -2.9071    0.0000 C   0  0  0  0  0  0  0  0  0
    1.2842   -3.4591    0.0000 C   0  0  0  0  0  0  0  0  0
   -2.9244   -0.6146    0.0000 C   0  0  0  0  0  0  0  0  0
   -2.9244   -1.4396    0.0000 O   0  0  0  0  0  0  0  0  0
   -3.6388   -1.8521    0.0000 C   0  0  0  0  0  0  0  0  0
   -3.6388   -0.2021    0.0000 C   0  0  0  0  0  0  0  0  0
   -3.6388    0.6229    0.0000 C   0  0  0  0  0  0  0  0  0
   -4.3533    1.0354    0.0000 N   0  0  0  0  0  0  0  0  0
  1  2  2  0  0  0  0
  1  3  2  0  0  0  0
  1  4  1  0  0  0  0
  1  6  1  0  0  0  0
  4  5  1  0  0  0  0
  6  7  4  0  0  0  0
  6 24  4  0  0  0  0
  7  8  4  0  0  0  0
  8  9  1  0  0  0  0
  8 20  4  0  0  0  0
  9 10  2  0  0  0  0
  9 11  1  0  0  0  0
 11 12  1  0  0  0  0
 12 13  1  0  0  0  0
 13 14  1  0  0  0  0
 13 17  1  0  0  0  0
 14 15  1  0  0  0  0
 14 18  1  0  0  0  0
 15 16  1  0  0  0  0
 16 17  1  0  0  0  0
 18 19  1  0  0  0  0
 20 21  1  0  0  0  0
 20 23  4  0  0  0  0
 21 22  1  0  0  0  0
 23 24  4  0  0  0  0
 24 25  1  0  0  0  0
M  END
>  <Name_Molregno>
389011

>  <5-HT1A>
5

>  <5-HT1B>
5.76

>  <5-HT1D>
5.87

>  <5-HT1E>
5

>  <5-HT2A>
5.64

>  <5-HT2C>
5

>  <5-HT3>
5

>  <5-HT5>
5

>  <5-HT6>
5.38

>  <5-HT7>
7.47

>  <Alpha-1A>
5

>  <Alpha-1B>
5

>  <Alpha-2A>
5.95

>  <Alpha-2C>
5.81

>  <Beta-1>
5

>  <Beta-2>
5

>  <DOPAMINE D1>
5

>  <DOPAMINE D2>
8.71

>  <DOPAMINE D3>
8.51

>  <DOPAMINE D4>
5.63

>  <DOPAMINE D5>
5

>  <Dopamine transporter>
5

>  <HISTAMINE H1>
5

>  <HISTAMINE H2>
5

>  <HISTAMINE H4>
5

>  <Muscarinic acetylcholine receptor M1>
5

>  <Muscarinic acetylcholine receptor M2>
5

>  <Muscarinic acetylcholine receptor M3>
5

>  <Muscarinic acetylcholine receptor M4>
5

>  <Muscarinic acetylcholine receptor M5>
5

>  <Norepinephrine transporter>
5

>  <Serotonin transporter>
5

$$$$
390008
  Marvin  02231216192D 0   1.00000     0.00000     0

 39 44  0  0  0  0  0  0  0  0999 V2000
    0.3222    0.7886    0.0000 S   0  0  0  0  0  0  0  0  0
   -0.0134    0.0349    0.0000 C   0  0  0  0  0  0  0  0  0
    0.4715   -0.6325    0.0000 C   0  0  0  0  0  0  0  0  0
    0.1360   -1.3862    0.0000 C   0  0  0  0  0  0  0  0  0
    0.6209   -2.0537    0.0000 N   0  0  0  0  0  0  0  0  0
    1.4326   -1.9063    0.0000 C   0  0  0  0  0  0  0  0  0
    2.0539   -2.4491    0.0000 C   0  0  0  0  0  0  0  0  0
    2.0169   -3.2733    0.0000 C   0  0  0  0  0  0  0  0  0
    2.7706   -3.6089    0.0000 C   0  0  0  0  0  0  0  0  0
    2.8568   -4.4294    0.0000 C   0  0  0  0  0  0  0  0  0
    2.1894   -4.9143    0.0000 C   0  0  0  0  0  0  0  0  0
    1.4357   -4.5787    0.0000 C   0  0  0  0  0  0  0  0  0
    1.3495   -3.7582    0.0000 C   0  0  0  0  0  0  0  0  0
    0.5542   -3.5388    0.0000 C   0  0  0  0  0  0  0  0  0
    0.2299   -2.7801    0.0000 C   0  0  0  0  0  0  0  0  0
    3.6105   -4.7649    0.0000 C   0  0  0  0  0  0  0  0  0
    4.3250   -4.3524    0.0000 N   0  0  0  0  0  0  0  0  0
    4.9380   -4.9044    0.0000 N   0  0  0  0  0  0  0  0  0
    4.6025   -5.6581    0.0000 C   0  0  0  0  0  0  0  0  0
    3.7820   -5.5719    0.0000 C   0  0  0  0  0  0  0  0  0
    5.0150   -6.3726    0.0000 C   0  0  0  0  0  0  0  0  0
    4.4112   -3.5319    0.0000 C   0  0  0  0  0  0  0  0  0
   -0.1628    1.4560    0.0000 C   0  0  0  0  0  0  0  0  0
   -0.9878    1.4560    0.0000 N   0  0  0  0  0  0  0  0  0
   -1.2427    2.2406    0.0000 N   0  0  0  0  0  0  0  0  0
   -0.5753    2.7256    0.0000 C   0  0  0  0  0  0  0  0  0
    0.0922    2.2406    0.0000 N   0  0  0  0  0  0  0  0  0
    0.8768    2.4956    0.0000 C   0  0  0  0  0  0  0  0  0
   -0.5753    3.5506    0.0000 C   0  0  0  0  0  0  0  0  0
    0.1392    3.9631    0.0000 C   0  0  0  0  0  0  0  0  0
    0.1392    4.7881    0.0000 C   0  0  0  0  0  0  0  0  0
    0.8537    5.2006    0.0000 N   0  0  0  0  0  0  0  0  0
    1.5681    4.7881    0.0000 C   0  0  0  0  0  0  0  0  0
    1.5681    3.9631    0.0000 C   0  0  0  0  0  0  0  0  0
    0.8537    3.5506    0.0000 C   0  0  0  0  0  0  0  0  0
    2.2826    5.2006    0.0000 C   0  0  0  0  0  0  0  0  0
   -0.5753    5.2006    0.0000 C   0  0  0  0  0  0  0  0  0
   -1.2897    4.7881    0.0000 C   0  0  0  0  0  0  0  0  0
   -1.2897    3.9631    0.0000 C   0  0  0  0  0  0  0  0  0
  1  2  1  0  0  0  0
  1 23  1  0  0  0  0
  2  3  1  0  0  0  0
  3  4  1  0  0  0  0
  4  5  1  0  0  0  0
  5  6  1  0  0  0  0
  5 15  1  0  0  0  0
  6  7  1  0  0  0  0
  7  8  1  0  0  0  0
  8  9  4  0  0  0  0
  8 13  4  0  0  0  0
  9 10  4  0  0  0  0
 10 11  4  0  0  0  0
 10 16  1  0  0  0  0
 11 12  4  0  0  0  0
 12 13  4  0  0  0  0
 13 14  1  0  0  0  0
 14 15  1  0  0  0  0
 16 17  4  0  0  0  0
 16 20  4  0  0  0  0
 17 18  4  0  0  0  0
 17 22  1  0  0  0  0
 18 19  4  0  0  0  0
 19 20  4  0  0  0  0
 19 21  1  0  0  0  0
 23 24  4  0  0  0  0
 23 27  4  0  0  0  0
 24 25  4  0  0  0  0
 25 26  4  0  0  0  0
 26 27  4  0  0  0  0
 26 29  1  0  0  0  0
 27 28  1  0  0  0  0
 29 30  4  0  0  0  0
 29 39  4  0  0  0  0
 30 31  4  0  0  0  0
 30 35  4  0  0  0  0
 31 32  4  0  0  0  0
 31 37  4  0  0  0  0
 32 33  4  0  0  0  0
 33 34  4  0  0  0  0
 33 36  1  0  0  0  0
 34 35  4  0  0  0  0
 37 38  4  0  0  0  0
 38 39  4  0  0  0  0
M  END
>  <Name_Molregno>
390008

>  <5-HT1A>
6.2

>  <5-HT1B>
6.3

>  <5-HT1D>
6.7

>  <5-HT2A>
5.4

>  <5-HT2C>
5.4

>  <5-HT6>
5.9

>  <5-HT7>
5.7

>  <Alpha-1A>
6.2

>  <Alpha-1B>
5.7

>  <DOPAMINE D2>
6.25

>  <DOPAMINE D3>
8.7

>  <HISTAMINE H3>
6.5

$$$$
394323
  Marvin  02231216192D 0   1.00000     0.00000     0

 33 37  0  0  0  0  0  0  0  0999 V2000
   -9.4556    0.0968    0.0000 Cl  0  0  0  0  0  0  0  0  0
   -8.8916   -0.5053    0.0000 C   0  0  0  0  0  0  0  0  0
   -8.0882   -0.3179    0.0000 C   0  0  0  0  0  0  0  0  0
   -7.5242   -0.9200    0.0000 C   0  0  0  0  0  0  0  0  0
   -6.6993   -0.9037    0.0000 C   0  0  0  0  0  0  0  0  0
   -6.4290   -1.6831    0.0000 C   0  0  0  0  0  0  0  0  0
   -7.0867   -2.1811    0.0000 N   0  0  0  0  0  0  0  0  0
   -7.7636   -1.7095    0.0000 C   0  0  0  0  0  0  0  0  0
   -8.5670   -1.8969    0.0000 C   0  0  0  0  0  0  0  0  0
   -9.1310   -1.2948    0.0000 C   0  0  0  0  0  0  0  0  0
   -9.9345   -1.4822    0.0000 Cl  0  0  0  0  0  0  0  0  0
   -7.0705   -3.0060    0.0000 C   0  0  0  0  0  0  0  0  0
   -5.6041   -1.6669    0.0000 C   0  0  0  0  0  0  0  0  0
   -5.3647   -0.8774    0.0000 N   0  0  0  0  0  0  0  0  0
   -6.0416   -0.4057    0.0000 C   0  0  0  0  0  0  0  0  0
   -6.0578    0.4191    0.0000 O   0  0  0  0  0  0  0  0  0
   -4.5853   -0.6070    0.0000 C   0  0  0  0  0  0  0  0  0
   -4.4297    0.2032    0.0000 C   0  0  0  0  0  0  0  0  0
   -3.6502    0.4735    0.0000 C   0  0  0  0  0  0  0  0  0
   -3.4947    1.2837    0.0000 O   0  0  0  0  0  0  0  0  0
   -2.7152    1.5541    0.0000 C   0  0  0  0  0  0  0  0  0
   -2.5596    2.3643    0.0000 C   0  0  0  0  0  0  0  0  0
   -1.7802    2.6346    0.0000 N   0  0  0  0  0  0  0  0  0
   -1.6246    3.4448    0.0000 C   0  0  0  0  0  0  0  0  0
   -0.8452    3.7152    0.0000 C   0  0  0  0  0  0  0  0  0
   -0.2213    3.1753    0.0000 C   0  0  0  0  0  0  0  0  0
   -0.3769    2.3652    0.0000 C   0  0  0  0  0  0  0  0  0
   -1.1563    2.0948    0.0000 C   0  0  0  0  0  0  0  0  0
   -3.0264   -0.0663    0.0000 C   0  0  0  0  0  0  0  0  0
   -2.2469    0.2040    0.0000 O   0  0  0  0  0  0  0  0  0
   -1.6231   -0.3358    0.0000 C   0  0  0  0  0  0  0  0  0
   -3.1820   -0.8765    0.0000 C   0  0  0  0  0  0  0  0  0
   -3.9614   -1.1469    0.0000 C   0  0  0  0  0  0  0  0  0
  1  2  1  0  0  0  0
  2  3  4  0  0  0  0
  2 10  4  0  0  0  0
  3  4  4  0  0  0  0
  4  5  4  0  0  0  0
  4  8  4  0  0  0  0
  5  6  4  0  0  0  0
  5 15  1  0  0  0  0
  6  7  4  0  0  0  0
  6 13  1  0  0  0  0
  7  8  4  0  0  0  0
  7 12  1  0  0  0  0
  8  9  4  0  0  0  0
  9 10  4  0  0  0  0
 10 11  1  0  0  0  0
 13 14  1  0  0  0  0
 14 15  1  0  0  0  0
 14 17  1  0  0  0  0
 15 16  2  0  0  0  0
 17 18  4  0  0  0  0
 17 33  4  0  0  0  0
 18 19  4  0  0  0  0
 19 20  1  0  0  0  0
 19 29  4  0  0  0  0
 20 21  1  0  0  0  0
 21 22  1  0  0  0  0
 22 23  1  0  0  0  0
 23 24  1  0  0  0  0
 23 28  1  0  0  0  0
 24 25  1  0  0  0  0
 25 26  1  0  0  0  0
 26 27  1  0  0  0  0
 27 28  1  0  0  0  0
 29 30  1  0  0  0  0
 29 32  4  0  0  0  0
 30 31  1  0  0  0  0
 32 33  4  0  0  0  0
M  END
>  <Name_Molregno>
394323

>  <5-HT2A>
6.3

>  <5-HT2C>
8.2

$$$$
394324
  Marvin  02231216192D 0   1.00000     0.00000     0

 32 36  0  0  0  0  0  0  0  0999 V2000
   -0.1257    0.2638    0.0000 Cl  0  0  0  0  0  0  0  0  0
    0.6777    0.0764    0.0000 C   0  0  0  0  0  0  0  0  0
    1.2417    0.6785    0.0000 C   0  0  0  0  0  0  0  0  0
    2.0451    0.4911    0.0000 C   0  0  0  0  0  0  0  0  0
    2.7220    0.9628    0.0000 N   0  0  0  0  0  0  0  0  0
    3.3798    0.4648    0.0000 C   0  0  0  0  0  0  0  0  0
    3.1094   -0.3146    0.0000 C   0  0  0  0  0  0  0  0  0
    2.2846   -0.2984    0.0000 C   0  0  0  0  0  0  0  0  0
    1.7206   -0.9005    0.0000 C   0  0  0  0  0  0  0  0  0
    0.9171   -0.7131    0.0000 C   0  0  0  0  0  0  0  0  0
    3.7672   -0.8126    0.0000 C   0  0  0  0  0  0  0  0  0
    3.7509   -1.6375    0.0000 O   0  0  0  0  0  0  0  0  0
    4.4440   -0.3409    0.0000 N   0  0  0  0  0  0  0  0  0
    4.2046    0.4486    0.0000 C   0  0  0  0  0  0  0  0  0
    5.2235   -0.6113    0.0000 C   0  0  0  0  0  0  0  0  0
    5.8473   -0.0715    0.0000 C   0  0  0  0  0  0  0  0  0
    6.6268   -0.3418    0.0000 C   0  0  0  0  0  0  0  0  0
    7.2506    0.1980    0.0000 O   0  0  0  0  0  0  0  0  0
    8.0301   -0.0723    0.0000 C   0  0  0  0  0  0  0  0  0
    8.6539    0.4675    0.0000 C   0  0  0  0  0  0  0  0  0
    9.4334    0.1972    0.0000 N   0  0  0  0  0  0  0  0  0
   10.0572    0.7370    0.0000 C   0  0  0  0  0  0  0  0  0
   10.8367    0.4666    0.0000 C   0  0  0  0  0  0  0  0  0
   10.9923   -0.3436    0.0000 C   0  0  0  0  0  0  0  0  0
   10.3684   -0.8834    0.0000 C   0  0  0  0  0  0  0  0  0
    9.5890   -0.6130    0.0000 C   0  0  0  0  0  0  0  0  0
    6.7824   -1.1520    0.0000 C   0  0  0  0  0  0  0  0  0
    7.5618   -1.4224    0.0000 O   0  0  0  0  0  0  0  0  0
    7.7174   -2.2326    0.0000 C   0  0  0  0  0  0  0  0  0
    6.1585   -1.6919    0.0000 C   0  0  0  0  0  0  0  0  0
    5.3791   -1.4215    0.0000 C   0  0  0  0  0  0  0  0  0
    2.7383    1.7876    0.0000 C   0  0  0  0  0  0  0  0  0
  1  2  1  0  0  0  0
  2  3  4  0  0  0  0
  2 10  4  0  0  0  0
  3  4  4  0  0  0  0
  4  5  4  0  0  0  0
  4  8  4  0  0  0  0
  5  6  4  0  0  0  0
  5 32  1  0  0  0  0
  6  7  4  0  0  0  0
  6 14  1  0  0  0  0
  7  8  4  0  0  0  0
  7 11  1  0  0  0  0
  8  9  4  0  0  0  0
  9 10  4  0  0  0  0
 11 12  2  0  0  0  0
 11 13  1  0  0  0  0
 13 14  1  0  0  0  0
 13 15  1  0  0  0  0
 15 16  4  0  0  0  0
 15 31  4  0  0  0  0
 16 17  4  0  0  0  0
 17 18  1  0  0  0  0
 17 27  4  0  0  0  0
 18 19  1  0  0  0  0
 19 20  1  0  0  0  0
 20 21  1  0  0  0  0
 21 22  1  0  0  0  0
 21 26  1  0  0  0  0
 22 23  1  0  0  0  0
 23 24  1  0  0  0  0
 24 25  1  0  0  0  0
 25 26  1  0  0  0  0
 27 28  1  0  0  0  0
 27 30  4  0  0  0  0
 28 29  1  0  0  0  0
 30 31  4  0  0  0  0
M  END
>  <Name_Molregno>
394324

>  <5-HT2A>
6.5

>  <5-HT2C>
8.3

$$$$
394325
  Marvin  02231216192D 0   1.00000     0.00000     0

 32 36  0  0  0  0  0  0  0  0999 V2000
   -9.6569   -1.0847    0.0000 Cl  0  0  0  0  0  0  0  0  0
   -9.0929   -1.6868    0.0000 C   0  0  0  0  0  0  0  0  0
   -8.2895   -1.4994    0.0000 C   0  0  0  0  0  0  0  0  0
   -7.7255   -2.1015    0.0000 C   0  0  0  0  0  0  0  0  0
   -6.9006   -2.0852    0.0000 C   0  0  0  0  0  0  0  0  0
   -6.6303   -2.8647    0.0000 C   0  0  0  0  0  0  0  0  0
   -7.2880   -3.3626    0.0000 N   0  0  0  0  0  0  0  0  0
   -7.9649   -2.8910    0.0000 C   0  0  0  0  0  0  0  0  0
   -8.7683   -3.0784    0.0000 C   0  0  0  0  0  0  0  0  0
   -9.3323   -2.4763    0.0000 C   0  0  0  0  0  0  0  0  0
   -7.2717   -4.1875    0.0000 C   0  0  0  0  0  0  0  0  0
   -5.8054   -2.8484    0.0000 C   0  0  0  0  0  0  0  0  0
   -5.5660   -2.0589    0.0000 N   0  0  0  0  0  0  0  0  0
   -6.2429   -1.5872    0.0000 C   0  0  0  0  0  0  0  0  0
   -6.2591   -0.7624    0.0000 O   0  0  0  0  0  0  0  0  0
   -4.7866   -1.7885    0.0000 C   0  0  0  0  0  0  0  0  0
   -4.6310   -0.9783    0.0000 C   0  0  0  0  0  0  0  0  0
   -3.8515   -0.7080    0.0000 C   0  0  0  0  0  0  0  0  0
   -3.6959    0.1022    0.0000 O   0  0  0  0  0  0  0  0  0
   -2.9165    0.3726    0.0000 C   0  0  0  0  0  0  0  0  0
   -2.7609    1.1828    0.0000 C   0  0  0  0  0  0  0  0  0
   -1.9815    1.4531    0.0000 N   0  0  0  0  0  0  0  0  0
   -1.8259    2.2633    0.0000 C   0  0  0  0  0  0  0  0  0
   -1.0464    2.5337    0.0000 C   0  0  0  0  0  0  0  0  0
   -0.4226    1.9938    0.0000 C   0  0  0  0  0  0  0  0  0
   -0.5782    1.1836    0.0000 C   0  0  0  0  0  0  0  0  0
   -1.3576    0.9133    0.0000 C   0  0  0  0  0  0  0  0  0
   -3.2277   -1.2478    0.0000 C   0  0  0  0  0  0  0  0  0
   -2.4482   -0.9775    0.0000 O   0  0  0  0  0  0  0  0  0
   -1.8244   -1.5173    0.0000 C   0  0  0  0  0  0  0  0  0
   -3.3833   -2.0580    0.0000 C   0  0  0  0  0  0  0  0  0
   -4.1627   -2.3284    0.0000 C   0  0  0  0  0  0  0  0  0
  1  2  1  0  0  0  0
  2  3  4  0  0  0  0
  2 10  4  0  0  0  0
  3  4  4  0  0  0  0
  4  5  4  0  0  0  0
  4  8  4  0  0  0  0
  5  6  4  0  0  0  0
  5 14  1  0  0  0  0
  6  7  4  0  0  0  0
  6 12  1  0  0  0  0
  7  8  4  0  0  0  0
  7 11  1  0  0  0  0
  8  9  4  0  0  0  0
  9 10  4  0  0  0  0
 12 13  1  0  0  0  0
 13 14  1  0  0  0  0
 13 16  1  0  0  0  0
 14 15  2  0  0  0  0
 16 17  4  0  0  0  0
 16 32  4  0  0  0  0
 17 18  4  0  0  0  0
 18 19  1  0  0  0  0
 18 28  4  0  0  0  0
 19 20  1  0  0  0  0
 20 21  1  0  0  0  0
 21 22  1  0  0  0  0
 22 23  1  0  0  0  0
 22 27  1  0  0  0  0
 23 24  1  0  0  0  0
 24 25  1  0  0  0  0
 25 26  1  0  0  0  0
 26 27  1  0  0  0  0
 28 29  1  0  0  0  0
 28 31  4  0  0  0  0
 29 30  1  0  0  0  0
 31 32  4  0  0  0  0
M  END
>  <Name_Molregno>
394325

>  <5-HT2A>
6.8

>  <5-HT2C>
8.6

$$$$
394327
  Marvin  02231216192D 0   1.00000     0.00000     0

 32 36  0  0  0  0  0  0  0  0999 V2000
   -0.1257    0.2638    0.0000 F   0  0  0  0  0  0  0  0  0
    0.6777    0.0764    0.0000 C   0  0  0  0  0  0  0  0  0
    1.2417    0.6785    0.0000 C   0  0  0  0  0  0  0  0  0
    2.0451    0.4911    0.0000 C   0  0  0  0  0  0  0  0  0
    2.7220    0.9628    0.0000 N   0  0  0  0  0  0  0  0  0
    3.3798    0.4648    0.0000 C   0  0  0  0  0  0  0  0  0
    3.1094   -0.3146    0.0000 C   0  0  0  0  0  0  0  0  0
    2.2846   -0.2984    0.0000 C   0  0  0  0  0  0  0  0  0
    1.7206   -0.9005    0.0000 C   0  0  0  0  0  0  0  0  0
    0.9171   -0.7131    0.0000 C   0  0  0  0  0  0  0  0  0
    3.7672   -0.8126    0.0000 C   0  0  0  0  0  0  0  0  0
    3.7509   -1.6375    0.0000 O   0  0  0  0  0  0  0  0  0
    4.4440   -0.3409    0.0000 N   0  0  0  0  0  0  0  0  0
    4.2046    0.4486    0.0000 C   0  0  0  0  0  0  0  0  0
    5.2235   -0.6113    0.0000 C   0  0  0  0  0  0  0  0  0
    5.8473   -0.0715    0.0000 C   0  0  0  0  0  0  0  0  0
    6.6268   -0.3418    0.0000 C   0  0  0  0  0  0  0  0  0
    7.2506    0.1980    0.0000 O   0  0  0  0  0  0  0  0  0
    8.0301   -0.0723    0.0000 C   0  0  0  0  0  0  0  0  0
    8.6539    0.4675    0.0000 C   0  0  0  0  0  0  0  0  0
    9.4334    0.1972    0.0000 N   0  0  0  0  0  0  0  0  0
   10.0572    0.7370    0.0000 C   0  0  0  0  0  0  0  0  0
   10.8367    0.4666    0.0000 C   0  0  0  0  0  0  0  0  0
   10.9923   -0.3436    0.0000 C   0  0  0  0  0  0  0  0  0
   10.3684   -0.8834    0.0000 C   0  0  0  0  0  0  0  0  0
    9.5890   -0.6130    0.0000 C   0  0  0  0  0  0  0  0  0
    6.7824   -1.1520    0.0000 C   0  0  0  0  0  0  0  0  0
    7.5618   -1.4224    0.0000 O   0  0  0  0  0  0  0  0  0
    7.7174   -2.2326    0.0000 C   0  0  0  0  0  0  0  0  0
    6.1585   -1.6919    0.0000 C   0  0  0  0  0  0  0  0  0
    5.3791   -1.4215    0.0000 C   0  0  0  0  0  0  0  0  0
    2.7383    1.7876    0.0000 C   0  0  0  0  0  0  0  0  0
  1  2  1  0  0  0  0
  2  3  4  0  0  0  0
  2 10  4  0  0  0  0
  3  4  4  0  0  0  0
  4  5  4  0  0  0  0
  4  8  4  0  0  0  0
  5  6  4  0  0  0  0
  5 32  1  0  0  0  0
  6  7  4  0  0  0  0
  6 14  1  0  0  0  0
  7  8  4  0  0  0  0
  7 11  1  0  0  0  0
  8  9  4  0  0  0  0
  9 10  4  0  0  0  0
 11 12  2  0  0  0  0
 11 13  1  0  0  0  0
 13 14  1  0  0  0  0
 13 15  1  0  0  0  0
 15 16  4  0  0  0  0
 15 31  4  0  0  0  0
 16 17  4  0  0  0  0
 17 18  1  0  0  0  0
 17 27  4  0  0  0  0
 18 19  1  0  0  0  0
 19 20  1  0  0  0  0
 20 21  1  0  0  0  0
 21 22  1  0  0  0  0
 21 26  1  0  0  0  0
 22 23  1  0  0  0  0
 23 24  1  0  0  0  0
 24 25  1  0  0  0  0
 25 26  1  0  0  0  0
 27 28  1  0  0  0  0
 27 30  4  0  0  0  0
 28 29  1  0  0  0  0
 30 31  4  0  0  0  0
M  END
>  <Name_Molregno>
394327

>  <5-HT2A>
5

>  <5-HT2C>
7.9

$$$$
394329
  Marvin  02231216192D 0   1.00000     0.00000     0

 33 37  0  0  0  0  0  0  0  0999 V2000
   -3.0295    2.2855    0.0000 O   0  0  0  0  0  0  0  0  0
   -3.8090    2.5559    0.0000 C   0  0  0  0  0  0  0  0  0
   -3.9646    3.3661    0.0000 C   0  0  0  0  0  0  0  0  0
   -4.7440    3.6365    0.0000 N   0  0  0  0  0  0  0  0  0
   -5.3679    3.0966    0.0000 C   0  0  0  0  0  0  0  0  0
   -6.1473    3.3670    0.0000 C   0  0  0  0  0  0  0  0  0
   -6.3029    4.1772    0.0000 C   0  0  0  0  0  0  0  0  0
   -5.6790    4.7170    0.0000 C   0  0  0  0  0  0  0  0  0
   -4.8996    4.4466    0.0000 C   0  0  0  0  0  0  0  0  0
   -2.8739    1.4753    0.0000 C   0  0  0  0  0  0  0  0  0
   -2.0945    1.2050    0.0000 C   0  0  0  0  0  0  0  0  0
   -1.9389    0.3948    0.0000 C   0  0  0  0  0  0  0  0  0
   -1.1595    0.1244    0.0000 N   0  0  0  0  0  0  0  0  0
   -0.9200   -0.6651    0.0000 C   0  0  0  0  0  0  0  0  0
   -0.0952   -0.6813    0.0000 C   0  0  0  0  0  0  0  0  0
    0.5625   -1.1793    0.0000 N   0  0  0  0  0  0  0  0  0
    1.2394   -0.7076    0.0000 C   0  0  0  0  0  0  0  0  0
    1.0000    0.0819    0.0000 C   0  0  0  0  0  0  0  0  0
    0.1752    0.0981    0.0000 C   0  0  0  0  0  0  0  0  0
   -0.4826    0.5961    0.0000 C   0  0  0  0  0  0  0  0  0
   -0.4663    1.4209    0.0000 O   0  0  0  0  0  0  0  0  0
    1.5640    0.6840    0.0000 C   0  0  0  0  0  0  0  0  0
    2.3674    0.4966    0.0000 C   0  0  0  0  0  0  0  0  0
    2.9315    1.0986    0.0000 O   0  0  0  0  0  0  0  0  0
    2.6920    1.8881    0.0000 C   0  0  0  0  0  0  0  0  0
    2.6069   -0.2929    0.0000 C   0  0  0  0  0  0  0  0  0
    2.0429   -0.8950    0.0000 C   0  0  0  0  0  0  0  0  0
    0.5463   -2.0041    0.0000 C   0  0  0  0  0  0  0  0  0
   -2.5628   -0.1450    0.0000 C   0  0  0  0  0  0  0  0  0
   -3.3422    0.1253    0.0000 C   0  0  0  0  0  0  0  0  0
   -3.4978    0.9355    0.0000 C   0  0  0  0  0  0  0  0  0
   -4.2772    1.2059    0.0000 O   0  0  0  0  0  0  0  0  0
   -4.9011    0.6660    0.0000 C   0  0  0  0  0  0  0  0  0
  1  2  1  0  0  0  0
  1 10  1  0  0  0  0
  2  3  1  0  0  0  0
  3  4  1  0  0  0  0
  4  5  1  0  0  0  0
  4  9  1  0  0  0  0
  5  6  1  0  0  0  0
  6  7  1  0  0  0  0
  7  8  1  0  0  0  0
  8  9  1  0  0  0  0
 10 11  4  0  0  0  0
 10 31  4  0  0  0  0
 11 12  4  0  0  0  0
 12 13  1  0  0  0  0
 12 29  4  0  0  0  0
 13 14  1  0  0  0  0
 13 20  1  0  0  0  0
 14 15  1  0  0  0  0
 15 16  4  0  0  0  0
 15 19  4  0  0  0  0
 16 17  4  0  0  0  0
 16 28  1  0  0  0  0
 17 18  4  0  0  0  0
 17 27  4  0  0  0  0
 18 19  4  0  0  0  0
 18 22  4  0  0  0  0
 19 20  1  0  0  0  0
 20 21  2  0  0  0  0
 22 23  4  0  0  0  0
 23 24  1  0  0  0  0
 23 26  4  0  0  0  0
 24 25  1  0  0  0  0
 26 27  4  0  0  0  0
 29 30  4  0  0  0  0
 30 31  4  0  0  0  0
 31 32  1  0  0  0  0
 32 33  1  0  0  0  0
M  END
>  <Name_Molregno>
394329

>  <5-HT2A>
6

>  <5-HT2C>
7.5

$$$$
394332
  Marvin  02231216192D 0   1.00000     0.00000     0

 33 37  0  0  0  0  0  0  0  0999 V2000
   -0.1303    0.2778    0.0000 Cl  0  0  0  0  0  0  0  0  0
    0.6732    0.0904    0.0000 C   0  0  0  0  0  0  0  0  0
    1.2372    0.6924    0.0000 C   0  0  0  0  0  0  0  0  0
    2.0406    0.5050    0.0000 C   0  0  0  0  0  0  0  0  0
    2.7175    0.9767    0.0000 N   0  0  0  0  0  0  0  0  0
    3.3752    0.4787    0.0000 C   0  0  0  0  0  0  0  0  0
    3.1049   -0.3007    0.0000 C   0  0  0  0  0  0  0  0  0
    2.2800   -0.2845    0.0000 C   0  0  0  0  0  0  0  0  0
    1.7160   -0.8865    0.0000 C   0  0  0  0  0  0  0  0  0
    0.9126   -0.6991    0.0000 C   0  0  0  0  0  0  0  0  0
    3.7626   -0.7987    0.0000 C   0  0  0  0  0  0  0  0  0
    3.7464   -1.6235    0.0000 O   0  0  0  0  0  0  0  0  0
    4.4395   -0.3270    0.0000 N   0  0  0  0  0  0  0  0  0
    4.2001    0.4625    0.0000 C   0  0  0  0  0  0  0  0  0
    5.2189   -0.5974    0.0000 C   0  0  0  0  0  0  0  0  0
    5.8428   -0.0575    0.0000 C   0  0  0  0  0  0  0  0  0
    6.6222   -0.3279    0.0000 C   0  0  0  0  0  0  0  0  0
    7.2461    0.2119    0.0000 O   0  0  0  0  0  0  0  0  0
    8.0255   -0.0584    0.0000 C   0  0  0  0  0  0  0  0  0
    8.6494    0.4814    0.0000 C   0  0  0  0  0  0  0  0  0
    9.4288    0.2111    0.0000 N   0  0  0  0  0  0  0  0  0
   10.0527    0.7509    0.0000 C   0  0  0  0  0  0  0  0  0
   10.8322    0.4805    0.0000 C   0  0  0  0  0  0  0  0  0
   10.9877   -0.3297    0.0000 C   0  0  0  0  0  0  0  0  0
   10.3639   -0.8695    0.0000 C   0  0  0  0  0  0  0  0  0
    9.5844   -0.5991    0.0000 C   0  0  0  0  0  0  0  0  0
   11.7672   -0.6000    0.0000 C   0  0  0  0  0  0  0  0  0
    6.7778   -1.1381    0.0000 C   0  0  0  0  0  0  0  0  0
    7.5573   -1.4085    0.0000 O   0  0  0  0  0  0  0  0  0
    7.7129   -2.2187    0.0000 C   0  0  0  0  0  0  0  0  0
    6.1540   -1.6779    0.0000 C   0  0  0  0  0  0  0  0  0
    5.3745   -1.4076    0.0000 C   0  0  0  0  0  0  0  0  0
    2.7338    1.8016    0.0000 C   0  0  0  0  0  0  0  0  0
  1  2  1  0  0  0  0
  2  3  4  0  0  0  0
  2 10  4  0  0  0  0
  3  4  4  0  0  0  0
  4  5  4  0  0  0  0
  4  8  4  0  0  0  0
  5  6  4  0  0  0  0
  5 33  1  0  0  0  0
  6  7  4  0  0  0  0
  6 14  1  0  0  0  0
  7  8  4  0  0  0  0
  7 11  1  0  0  0  0
  8  9  4  0  0  0  0
  9 10  4  0  0  0  0
 11 12  2  0  0  0  0
 11 13  1  0  0  0  0
 13 14  1  0  0  0  0
 13 15  1  0  0  0  0
 15 16  4  0  0  0  0
 15 32  4  0  0  0  0
 16 17  4  0  0  0  0
 17 18  1  0  0  0  0
 17 28  4  0  0  0  0
 18 19  1  0  0  0  0
 19 20  1  0  0  0  0
 20 21  1  0  0  0  0
 21 22  1  0  0  0  0
 21 26  1  0  0  0  0
 22 23  1  0  0  0  0
 23 24  1  0  0  0  0
 24 25  1  0  0  0  0
 24 27  1  0  0  0  0
 25 26  1  0  0  0  0
 28 29  1  0  0  0  0
 28 31  4  0  0  0  0
 29 30  1  0  0  0  0
 31 32  4  0  0  0  0
M  END
>  <Name_Molregno>
394332

>  <5-HT2A>
6.6

>  <5-HT2C>
8.4

$$$$
394333
  Marvin  02231216192D 0   1.00000     0.00000     0

 33 37  0  0  0  0  0  0  0  0999 V2000
  -10.0010   -1.1963    0.0000 Cl  0  0  0  0  0  0  0  0  0
   -9.4370   -1.7984    0.0000 C   0  0  0  0  0  0  0  0  0
   -8.6335   -1.6110    0.0000 C   0  0  0  0  0  0  0  0  0
   -8.0695   -2.2131    0.0000 C   0  0  0  0  0  0  0  0  0
   -7.2447   -2.1968    0.0000 C   0  0  0  0  0  0  0  0  0
   -6.9743   -2.9762    0.0000 C   0  0  0  0  0  0  0  0  0
   -7.6321   -3.4742    0.0000 N   0  0  0  0  0  0  0  0  0
   -8.3090   -3.0025    0.0000 C   0  0  0  0  0  0  0  0  0
   -9.1124   -3.1899    0.0000 C   0  0  0  0  0  0  0  0  0
   -9.6764   -2.5879    0.0000 C   0  0  0  0  0  0  0  0  0
   -7.6158   -4.2991    0.0000 C   0  0  0  0  0  0  0  0  0
   -6.1495   -2.9600    0.0000 C   0  0  0  0  0  0  0  0  0
   -5.9101   -2.1705    0.0000 N   0  0  0  0  0  0  0  0  0
   -6.5869   -1.6988    0.0000 C   0  0  0  0  0  0  0  0  0
   -6.6032   -0.8740    0.0000 O   0  0  0  0  0  0  0  0  0
   -5.1306   -1.9001    0.0000 C   0  0  0  0  0  0  0  0  0
   -4.9750   -1.0899    0.0000 C   0  0  0  0  0  0  0  0  0
   -4.1956   -0.8196    0.0000 C   0  0  0  0  0  0  0  0  0
   -4.0400   -0.0094    0.0000 O   0  0  0  0  0  0  0  0  0
   -3.2606    0.2610    0.0000 C   0  0  0  0  0  0  0  0  0
   -3.1050    1.0712    0.0000 C   0  0  0  0  0  0  0  0  0
   -2.3255    1.3415    0.0000 N   0  0  0  0  0  0  0  0  0
   -2.1700    2.1517    0.0000 C   0  0  0  0  0  0  0  0  0
   -1.3905    2.4221    0.0000 C   0  0  0  0  0  0  0  0  0
   -0.7667    1.8823    0.0000 C   0  0  0  0  0  0  0  0  0
   -0.9222    1.0721    0.0000 C   0  0  0  0  0  0  0  0  0
   -1.7017    0.8017    0.0000 C   0  0  0  0  0  0  0  0  0
    0.0128    2.1526    0.0000 C   0  0  0  0  0  0  0  0  0
   -3.5717   -1.3594    0.0000 C   0  0  0  0  0  0  0  0  0
   -2.7923   -1.0890    0.0000 O   0  0  0  0  0  0  0  0  0
   -2.1684   -1.6289    0.0000 C   0  0  0  0  0  0  0  0  0
   -3.7273   -2.1696    0.0000 C   0  0  0  0  0  0  0  0  0
   -4.5068   -2.4400    0.0000 C   0  0  0  0  0  0  0  0  0
  1  2  1  0  0  0  0
  2  3  4  0  0  0  0
  2 10  4  0  0  0  0
  3  4  4  0  0  0  0
  4  5  4  0  0  0  0
  4  8  4  0  0  0  0
  5  6  4  0  0  0  0
  5 14  1  0  0  0  0
  6  7  4  0  0  0  0
  6 12  1  0  0  0  0
  7  8  4  0  0  0  0
  7 11  1  0  0  0  0
  8  9  4  0  0  0  0
  9 10  4  0  0  0  0
 12 13  1  0  0  0  0
 13 14  1  0  0  0  0
 13 16  1  0  0  0  0
 14 15  2  0  0  0  0
 16 17  4  0  0  0  0
 16 33  4  0  0  0  0
 17 18  4  0  0  0  0
 18 19  1  0  0  0  0
 18 29  4  0  0  0  0
 19 20  1  0  0  0  0
 20 21  1  0  0  0  0
 21 22  1  0  0  0  0
 22 23  1  0  0  0  0
 22 27  1  0  0  0  0
 23 24  1  0  0  0  0
 24 25  1  0  0  0  0
 25 26  1  0  0  0  0
 25 28  1  0  0  0  0
 26 27  1  0  0  0  0
 29 30  1  0  0  0  0
 29 32  4  0  0  0  0
 30 31  1  0  0  0  0
 32 33  4  0  0  0  0
M  END
>  <Name_Molregno>
394333

>  <5-HT2A>
6.9

>  <5-HT2C>
8.5

$$$$
394334
  Marvin  02231216192D 0   1.00000     0.00000     0

 33 37  0  0  0  0  0  0  0  0999 V2000
   -9.4203    1.0761    0.0000 F   0  0  0  0  0  0  0  0  0
   -9.1809    0.2866    0.0000 C   0  0  0  0  0  0  0  0  0
   -8.3774    0.0992    0.0000 C   0  0  0  0  0  0  0  0  0
   -7.7006    0.5709    0.0000 N   0  0  0  0  0  0  0  0  0
   -7.0428    0.0729    0.0000 C   0  0  0  0  0  0  0  0  0
   -7.3132   -0.7066    0.0000 C   0  0  0  0  0  0  0  0  0
   -8.1380   -0.6903    0.0000 C   0  0  0  0  0  0  0  0  0
   -8.7020   -1.2924    0.0000 C   0  0  0  0  0  0  0  0  0
   -9.5055   -1.1050    0.0000 C   0  0  0  0  0  0  0  0  0
   -9.7449   -0.3155    0.0000 C   0  0  0  0  0  0  0  0  0
   -6.6554   -1.2046    0.0000 C   0  0  0  0  0  0  0  0  0
   -6.6717   -2.0294    0.0000 O   0  0  0  0  0  0  0  0  0
   -5.9786   -0.7329    0.0000 N   0  0  0  0  0  0  0  0  0
   -6.2180    0.0566    0.0000 C   0  0  0  0  0  0  0  0  0
   -5.1991   -1.0032    0.0000 C   0  0  0  0  0  0  0  0  0
   -4.5753   -0.4634    0.0000 C   0  0  0  0  0  0  0  0  0
   -3.7958   -0.7338    0.0000 C   0  0  0  0  0  0  0  0  0
   -3.1720   -0.1939    0.0000 O   0  0  0  0  0  0  0  0  0
   -2.3925   -0.4643    0.0000 C   0  0  0  0  0  0  0  0  0
   -1.7687    0.0756    0.0000 C   0  0  0  0  0  0  0  0  0
   -0.9892   -0.1948    0.0000 N   0  0  0  0  0  0  0  0  0
   -0.3654    0.3450    0.0000 C   0  0  0  0  0  0  0  0  0
    0.4141    0.0747    0.0000 C   0  0  0  0  0  0  0  0  0
    0.5697   -0.7355    0.0000 C   0  0  0  0  0  0  0  0  0
   -0.0542   -1.2753    0.0000 C   0  0  0  0  0  0  0  0  0
   -0.8336   -1.0050    0.0000 C   0  0  0  0  0  0  0  0  0
    1.3491   -1.0059    0.0000 C   0  0  0  0  0  0  0  0  0
   -3.6402   -1.5440    0.0000 C   0  0  0  0  0  0  0  0  0
   -2.8608   -1.8143    0.0000 O   0  0  0  0  0  0  0  0  0
   -2.7052   -2.6245    0.0000 C   0  0  0  0  0  0  0  0  0
   -4.2641   -2.0838    0.0000 C   0  0  0  0  0  0  0  0  0
   -5.0435   -1.8134    0.0000 C   0  0  0  0  0  0  0  0  0
   -7.6843    1.3957    0.0000 C   0  0  0  0  0  0  0  0  0
  1  2  1  0  0  0  0
  2  3  4  0  0  0  0
  2 10  4  0  0  0  0
  3  4  4  0  0  0  0
  3  7  4  0  0  0  0
  4  5  4  0  0  0  0
  4 33  1  0  0  0  0
  5  6  4  0  0  0  0
  5 14  1  0  0  0  0
  6  7  4  0  0  0  0
  6 11  1  0  0  0  0
  7  8  4  0  0  0  0
  8  9  4  0  0  0  0
  9 10  4  0  0  0  0
 11 12  2  0  0  0  0
 11 13  1  0  0  0  0
 13 14  1  0  0  0  0
 13 15  1  0  0  0  0
 15 16  4  0  0  0  0
 15 32  4  0  0  0  0
 16 17  4  0  0  0  0
 17 18  1  0  0  0  0
 17 28  4  0  0  0  0
 18 19  1  0  0  0  0
 19 20  1  0  0  0  0
 20 21  1  0  0  0  0
 21 22  1  0  0  0  0
 21 26  1  0  0  0  0
 22 23  1  0  0  0  0
 23 24  1  0  0  0  0
 24 25  1  0  0  0  0
 24 27  1  0  0  0  0
 25 26  1  0  0  0  0
 28 29  1  0  0  0  0
 28 31  4  0  0  0  0
 29 30  1  0  0  0  0
 31 32  4  0  0  0  0
M  END
>  <Name_Molregno>
394334

>  <5-HT2A>
6.6

>  <5-HT2C>
8.6

$$$$
394335
  Marvin  02231216192D 0   1.00000     0.00000     0

 33 37  0  0  0  0  0  0  0  0999 V2000
   -0.1303    0.2778    0.0000 F   0  0  0  0  0  0  0  0  0
    0.6732    0.0904    0.0000 C   0  0  0  0  0  0  0  0  0
    1.2372    0.6924    0.0000 C   0  0  0  0  0  0  0  0  0
    2.0406    0.5050    0.0000 C   0  0  0  0  0  0  0  0  0
    2.7175    0.9767    0.0000 N   0  0  0  0  0  0  0  0  0
    3.3752    0.4787    0.0000 C   0  0  0  0  0  0  0  0  0
    3.1049   -0.3007    0.0000 C   0  0  0  0  0  0  0  0  0
    2.2800   -0.2845    0.0000 C   0  0  0  0  0  0  0  0  0
    1.7160   -0.8865    0.0000 C   0  0  0  0  0  0  0  0  0
    0.9126   -0.6991    0.0000 C   0  0  0  0  0  0  0  0  0
    3.7626   -0.7987    0.0000 C   0  0  0  0  0  0  0  0  0
    3.7464   -1.6235    0.0000 O   0  0  0  0  0  0  0  0  0
    4.4395   -0.3270    0.0000 N   0  0  0  0  0  0  0  0  0
    4.2001    0.4625    0.0000 C   0  0  0  0  0  0  0  0  0
    5.2189   -0.5974    0.0000 C   0  0  0  0  0  0  0  0  0
    5.8428   -0.0575    0.0000 C   0  0  0  0  0  0  0  0  0
    6.6222   -0.3279    0.0000 C   0  0  0  0  0  0  0  0  0
    7.2461    0.2119    0.0000 O   0  0  0  0  0  0  0  0  0
    8.0255   -0.0584    0.0000 C   0  0  0  0  0  0  0  0  0
    8.6494    0.4814    0.0000 C   0  0  0  0  0  0  0  0  0
    9.4288    0.2111    0.0000 N   0  0  0  0  0  0  0  0  0
   10.0527    0.7509    0.0000 C   0  0  0  0  0  0  0  0  0
   10.8322    0.4805    0.0000 C   0  0  0  0  0  0  0  0  0
   10.9877   -0.3297    0.0000 C   0  0  0  0  0  0  0  0  0
   10.3639   -0.8695    0.0000 C   0  0  0  0  0  0  0  0  0
    9.5844   -0.5991    0.0000 C   0  0  0  0  0  0  0  0  0
   11.7672   -0.6000    0.0000 C   0  0  0  0  0  0  0  0  0
    6.7778   -1.1381    0.0000 C   0  0  0  0  0  0  0  0  0
    7.5573   -1.4085    0.0000 O   0  0  0  0  0  0  0  0  0
    7.7129   -2.2187    0.0000 C   0  0  0  0  0  0  0  0  0
    6.1540   -1.6779    0.0000 C   0  0  0  0  0  0  0  0  0
    5.3745   -1.4076    0.0000 C   0  0  0  0  0  0  0  0  0
    2.7338    1.8016    0.0000 C   0  0  0  0  0  0  0  0  0
  1  2  1  0  0  0  0
  2  3  4  0  0  0  0
  2 10  4  0  0  0  0
  3  4  4  0  0  0  0
  4  5  4  0  0  0  0
  4  8  4  0  0  0  0
  5  6  4  0  0  0  0
  5 33  1  0  0  0  0
  6  7  4  0  0  0  0
  6 14  1  0  0  0  0
  7  8  4  0  0  0  0
  7 11  1  0  0  0  0
  8  9  4  0  0  0  0
  9 10  4  0  0  0  0
 11 12  2  0  0  0  0
 11 13  1  0  0  0  0
 13 14  1  0  0  0  0
 13 15  1  0  0  0  0
 15 16  4  0  0  0  0
 15 32  4  0  0  0  0
 16 17  4  0  0  0  0
 17 18  1  0  0  0  0
 17 28  4  0  0  0  0
 18 19  1  0  0  0  0
 19 20  1  0  0  0  0
 20 21  1  0  0  0  0
 21 22  1  0  0  0  0
 21 26  1  0  0  0  0
 22 23  1  0  0  0  0
 23 24  1  0  0  0  0
 24 25  1  0  0  0  0
 24 27  1  0  0  0  0
 25 26  1  0  0  0  0
 28 29  1  0  0  0  0
 28 31  4  0  0  0  0
 29 30  1  0  0  0  0
 31 32  4  0  0  0  0
M  END
>  <Name_Molregno>
394335

>  <5-HT2A>
6.6

>  <5-HT2C>
7.8

$$$$
394336
  Marvin  02231216192D 0   1.00000     0.00000     0

 33 37  0  0  0  0  0  0  0  0999 V2000
  -10.0010   -1.1963    0.0000 F   0  0  0  0  0  0  0  0  0
   -9.4370   -1.7984    0.0000 C   0  0  0  0  0  0  0  0  0
   -8.6335   -1.6110    0.0000 C   0  0  0  0  0  0  0  0  0
   -8.0695   -2.2131    0.0000 C   0  0  0  0  0  0  0  0  0
   -7.2447   -2.1968    0.0000 C   0  0  0  0  0  0  0  0  0
   -6.9743   -2.9762    0.0000 C   0  0  0  0  0  0  0  0  0
   -7.6321   -3.4742    0.0000 N   0  0  0  0  0  0  0  0  0
   -8.3090   -3.0025    0.0000 C   0  0  0  0  0  0  0  0  0
   -9.1124   -3.1899    0.0000 C   0  0  0  0  0  0  0  0  0
   -9.6764   -2.5879    0.0000 C   0  0  0  0  0  0  0  0  0
   -7.6158   -4.2991    0.0000 C   0  0  0  0  0  0  0  0  0
   -6.1495   -2.9600    0.0000 C   0  0  0  0  0  0  0  0  0
   -5.9101   -2.1705    0.0000 N   0  0  0  0  0  0  0  0  0
   -6.5869   -1.6988    0.0000 C   0  0  0  0  0  0  0  0  0
   -6.6032   -0.8740    0.0000 O   0  0  0  0  0  0  0  0  0
   -5.1306   -1.9001    0.0000 C   0  0  0  0  0  0  0  0  0
   -4.9750   -1.0899    0.0000 C   0  0  0  0  0  0  0  0  0
   -4.1956   -0.8196    0.0000 C   0  0  0  0  0  0  0  0  0
   -4.0400   -0.0094    0.0000 O   0  0  0  0  0  0  0  0  0
   -3.2606    0.2610    0.0000 C   0  0  0  0  0  0  0  0  0
   -3.1050    1.0712    0.0000 C   0  0  0  0  0  0  0  0  0
   -2.3255    1.3415    0.0000 N   0  0  0  0  0  0  0  0  0
   -2.1700    2.1517    0.0000 C   0  0  0  0  0  0  0  0  0
   -1.3905    2.4221    0.0000 C   0  0  0  0  0  0  0  0  0
   -0.7667    1.8823    0.0000 C   0  0  0  0  0  0  0  0  0
   -0.9222    1.0721    0.0000 C   0  0  0  0  0  0  0  0  0
   -1.7017    0.8017    0.0000 C   0  0  0  0  0  0  0  0  0
    0.0128    2.1526    0.0000 C   0  0  0  0  0  0  0  0  0
   -3.5717   -1.3594    0.0000 C   0  0  0  0  0  0  0  0  0
   -2.7923   -1.0890    0.0000 O   0  0  0  0  0  0  0  0  0
   -2.1684   -1.6289    0.0000 C   0  0  0  0  0  0  0  0  0
   -3.7273   -2.1696    0.0000 C   0  0  0  0  0  0  0  0  0
   -4.5068   -2.4400    0.0000 C   0  0  0  0  0  0  0  0  0
  1  2  1  0  0  0  0
  2  3  4  0  0  0  0
  2 10  4  0  0  0  0
  3  4  4  0  0  0  0
  4  5  4  0  0  0  0
  4  8  4  0  0  0  0
  5  6  4  0  0  0  0
  5 14  1  0  0  0  0
  6  7  4  0  0  0  0
  6 12  1  0  0  0  0
  7  8  4  0  0  0  0
  7 11  1  0  0  0  0
  8  9  4  0  0  0  0
  9 10  4  0  0  0  0
 12 13  1  0  0  0  0
 13 14  1  0  0  0  0
 13 16  1  0  0  0  0
 14 15  2  0  0  0  0
 16 17  4  0  0  0  0
 16 33  4  0  0  0  0
 17 18  4  0  0  0  0
 18 19  1  0  0  0  0
 18 29  4  0  0  0  0
 19 20  1  0  0  0  0
 20 21  1  0  0  0  0
 21 22  1  0  0  0  0
 22 23  1  0  0  0  0
 22 27  1  0  0  0  0
 23 24  1  0  0  0  0
 24 25  1  0  0  0  0
 25 26  1  0  0  0  0
 25 28  1  0  0  0  0
 26 27  1  0  0  0  0
 29 30  1  0  0  0  0
 29 32  4  0  0  0  0
 30 31  1  0  0  0  0
 32 33  4  0  0  0  0
M  END
>  <Name_Molregno>
394336

>  <5-HT2A>
6.8

>  <5-HT2C>
8.6

$$$$
394344
  Marvin  02231216192D 0   1.00000     0.00000     0

 33 37  0  0  1  0  0  0  0  0999 V2000
   -2.1770    2.0263    0.0000 O   0  0  0  0  0  0  0  0  0
   -2.9564    2.2967    0.0000 C   0  0  0  0  0  0  0  0  0
   -3.1120    3.1069    0.0000 C   0  0  0  0  0  0  0  0  0
   -3.8915    3.3773    0.0000 N   0  0  0  0  0  0  0  0  0
   -4.5153    2.8374    0.0000 C   0  0  0  0  0  0  0  0  0
   -5.2948    3.1078    0.0000 C   0  0  0  0  0  0  0  0  0
   -5.4504    3.9180    0.0000 C   0  0  0  0  0  0  0  0  0
   -4.8265    4.4578    0.0000 C   0  0  0  0  0  0  0  0  0
   -4.0471    4.1875    0.0000 C   0  0  0  0  0  0  0  0  0
   -6.2298    4.1883    0.0000 C   0  0  0  0  0  0  0  0  0
   -2.0214    1.2161    0.0000 C   0  0  0  0  0  0  0  0  0
   -1.2420    0.9458    0.0000 C   0  0  0  0  0  0  0  0  0
   -1.0864    0.1356    0.0000 C   0  0  0  0  0  0  0  0  0
   -0.3069   -0.1348    0.0000 N   0  0  0  0  0  0  0  0  0
   -0.0675   -0.9243    0.0000 C   0  0  0  0  0  0  0  0  0
   -0.5655   -1.5820    0.0000 O   0  0  0  0  0  0  0  0  0
    0.7573   -0.9405    0.0000 C   0  0  0  0  0  0  0  0  0
    1.4151   -1.4385    0.0000 N   0  0  0  0  0  0  0  0  0
    2.0919   -0.9668    0.0000 C   0  0  0  0  0  0  0  0  0
    1.8525   -0.1773    0.0000 C   0  0  0  0  0  0  0  0  0
    1.0277   -0.1611    0.0000 C   0  0  0  0  0  0  0  0  0
    0.3699    0.3369    0.0000 C   0  0  0  0  0  0  0  0  0
    0.3862    1.1618    0.0000 O   0  0  0  0  0  0  0  0  0
    2.4165    0.4248    0.0000 C   0  0  0  0  0  0  0  0  0
    3.2200    0.2374    0.0000 C   0  0  0  0  0  0  0  0  0
    3.4594   -0.5521    0.0000 C   0  0  0  0  0  0  0  0  0
    2.8954   -1.1542    0.0000 C   0  0  0  0  0  0  0  0  0
    1.3988   -2.2633    0.0000 C   0  0  0  0  0  0  0  0  0
   -1.7102   -0.4042    0.0000 C   0  0  0  0  0  0  0  0  0
   -2.4897   -0.1339    0.0000 C   0  0  0  0  0  0  0  0  0
   -2.6453    0.6763    0.0000 C   0  0  0  0  0  0  0  0  0
   -3.4247    0.9467    0.0000 O   0  0  0  0  0  0  0  0  0
   -4.0486    0.4068    0.0000 C   0  0  0  0  0  0  0  0  0
  1  2  1  0  0  0  0
  1 11  1  0  0  0  0
  2  3  1  0  0  0  0
  3  4  1  0  0  0  0
  4  5  1  0  0  0  0
  4  9  1  0  0  0  0
  5  6  1  0  0  0  0
  6  7  1  0  0  0  0
  7  8  1  0  0  0  0
  7 10  1  0  0  0  0
  8  9  1  0  0  0  0
 11 12  4  0  0  0  0
 11 31  4  0  0  0  0
 12 13  4  0  0  0  0
 13 14  1  0  0  0  0
 13 29  4  0  0  0  0
 14 15  1  0  0  0  0
 14 22  1  0  0  0  0
 15 16  1  0  0  0  0
 15 17  1  0  0  0  0
 17 18  4  0  0  0  0
 17 21  4  0  0  0  0
 18 19  4  0  0  0  0
 18 28  1  0  0  0  0
 19 20  4  0  0  0  0
 19 27  4  0  0  0  0
 20 21  4  0  0  0  0
 20 24  4  0  0  0  0
 21 22  1  0  0  0  0
 22 23  2  0  0  0  0
 24 25  4  0  0  0  0
 25 26  4  0  0  0  0
 26 27  4  0  0  0  0
 29 30  4  0  0  0  0
 30 31  4  0  0  0  0
 31 32  1  0  0  0  0
 32 33  1  0  0  0  0
M  END
>  <Name_Molregno>
394344

>  <5-HT2A>
5

>  <5-HT2C>
8.3

$$$$
394359
  Marvin  02231216192D 0   1.00000     0.00000     0

 30 34  0  0  0  0  0  0  0  0999 V2000
   -0.7077   -3.8137    0.0000 S   0  0  0  0  0  0  0  0  0
   -0.0499   -3.3158    0.0000 C   0  0  0  0  0  0  0  0  0
   -0.3203   -2.5363    0.0000 C   0  0  0  0  0  0  0  0  0
   -1.1451   -2.5526    0.0000 C   0  0  0  0  0  0  0  0  0
   -1.3845   -3.3421    0.0000 C   0  0  0  0  0  0  0  0  0
   -2.1880   -3.5295    0.0000 C   0  0  0  0  0  0  0  0  0
   -2.7520   -2.9274    0.0000 C   0  0  0  0  0  0  0  0  0
   -2.5126   -2.1379    0.0000 C   0  0  0  0  0  0  0  0  0
   -1.7091   -1.9505    0.0000 C   0  0  0  0  0  0  0  0  0
    0.3375   -2.0383    0.0000 C   0  0  0  0  0  0  0  0  0
    0.3212   -1.2135    0.0000 O   0  0  0  0  0  0  0  0  0
    1.0143   -2.5100    0.0000 N   0  0  0  0  0  0  0  0  0
    0.7749   -3.2995    0.0000 C   0  0  0  0  0  0  0  0  0
    1.7938   -2.2396    0.0000 C   0  0  0  0  0  0  0  0  0
    1.9494   -1.4295    0.0000 C   0  0  0  0  0  0  0  0  0
    2.7288   -1.1591    0.0000 C   0  0  0  0  0  0  0  0  0
    2.8844   -0.3489    0.0000 O   0  0  0  0  0  0  0  0  0
    3.6638   -0.0785    0.0000 C   0  0  0  0  0  0  0  0  0
    3.8194    0.7317    0.0000 C   0  0  0  0  0  0  0  0  0
    4.5989    1.0020    0.0000 N   0  0  0  0  0  0  0  0  0
    4.7545    1.8122    0.0000 C   0  0  0  0  0  0  0  0  0
    5.5339    2.0826    0.0000 C   0  0  0  0  0  0  0  0  0
    6.1578    1.5427    0.0000 C   0  0  0  0  0  0  0  0  0
    6.0022    0.7325    0.0000 C   0  0  0  0  0  0  0  0  0
    5.2227    0.4622    0.0000 C   0  0  0  0  0  0  0  0  0
    3.3527   -1.6989    0.0000 C   0  0  0  0  0  0  0  0  0
    4.1321   -1.4286    0.0000 O   0  0  0  0  0  0  0  0  0
    4.7560   -1.9684    0.0000 C   0  0  0  0  0  0  0  0  0
    3.1971   -2.5091    0.0000 C   0  0  0  0  0  0  0  0  0
    2.4176   -2.7795    0.0000 C   0  0  0  0  0  0  0  0  0
  1  2  4  0  0  0  0
  1  5  4  0  0  0  0
  2  3  4  0  0  0  0
  2 13  1  0  0  0  0
  3  4  4  0  0  0  0
  3 10  1  0  0  0  0
  4  5  4  0  0  0  0
  4  9  4  0  0  0  0
  5  6  4  0  0  0  0
  6  7  4  0  0  0  0
  7  8  4  0  0  0  0
  8  9  4  0  0  0  0
 10 11  2  0  0  0  0
 10 12  1  0  0  0  0
 12 13  1  0  0  0  0
 12 14  1  0  0  0  0
 14 15  4  0  0  0  0
 14 30  4  0  0  0  0
 15 16  4  0  0  0  0
 16 17  1  0  0  0  0
 16 26  4  0  0  0  0
 17 18  1  0  0  0  0
 18 19  1  0  0  0  0
 19 20  1  0  0  0  0
 20 21  1  0  0  0  0
 20 25  1  0  0  0  0
 21 22  1  0  0  0  0
 22 23  1  0  0  0  0
 23 24  1  0  0  0  0
 24 25  1  0  0  0  0
 26 27  1  0  0  0  0
 26 29  4  0  0  0  0
 27 28  1  0  0  0  0
 29 30  4  0  0  0  0
M  END
>  <Name_Molregno>
394359

>  <5-HT2A>
6.4

>  <5-HT2C>
8.5

$$$$
394360
  Marvin  02231216192D 0   1.00000     0.00000     0

 31 35  0  0  0  0  0  0  0  0999 V2000
   -6.0569   -3.0559    0.0000 S   0  0  0  0  0  0  0  0  0
   -5.3992   -2.5579    0.0000 C   0  0  0  0  0  0  0  0  0
   -5.6695   -1.7785    0.0000 C   0  0  0  0  0  0  0  0  0
   -6.4944   -1.7948    0.0000 C   0  0  0  0  0  0  0  0  0
   -6.7338   -2.5843    0.0000 C   0  0  0  0  0  0  0  0  0
   -7.5372   -2.7717    0.0000 C   0  0  0  0  0  0  0  0  0
   -8.1012   -2.1696    0.0000 C   0  0  0  0  0  0  0  0  0
   -7.8618   -1.3801    0.0000 C   0  0  0  0  0  0  0  0  0
   -7.0584   -1.1927    0.0000 C   0  0  0  0  0  0  0  0  0
   -5.0118   -1.2805    0.0000 C   0  0  0  0  0  0  0  0  0
   -5.0280   -0.4557    0.0000 O   0  0  0  0  0  0  0  0  0
   -4.3349   -1.7522    0.0000 N   0  0  0  0  0  0  0  0  0
   -4.5743   -2.5417    0.0000 C   0  0  0  0  0  0  0  0  0
   -3.5555   -1.4818    0.0000 C   0  0  0  0  0  0  0  0  0
   -3.3999   -0.6716    0.0000 C   0  0  0  0  0  0  0  0  0
   -2.6204   -0.4013    0.0000 C   0  0  0  0  0  0  0  0  0
   -2.4649    0.4089    0.0000 O   0  0  0  0  0  0  0  0  0
   -1.6854    0.6793    0.0000 C   0  0  0  0  0  0  0  0  0
   -1.5298    1.4895    0.0000 C   0  0  0  0  0  0  0  0  0
   -0.7504    1.7598    0.0000 N   0  0  0  0  0  0  0  0  0
   -0.5948    2.5700    0.0000 C   0  0  0  0  0  0  0  0  0
    0.1846    2.8404    0.0000 C   0  0  0  0  0  0  0  0  0
    0.8085    2.3005    0.0000 C   0  0  0  0  0  0  0  0  0
    0.6529    1.4903    0.0000 C   0  0  0  0  0  0  0  0  0
   -0.1265    1.2200    0.0000 C   0  0  0  0  0  0  0  0  0
    1.5879    2.5709    0.0000 C   0  0  0  0  0  0  0  0  0
   -1.9966   -0.9411    0.0000 C   0  0  0  0  0  0  0  0  0
   -1.2171   -0.6708    0.0000 O   0  0  0  0  0  0  0  0  0
   -0.5933   -1.2106    0.0000 C   0  0  0  0  0  0  0  0  0
   -2.1522   -1.7513    0.0000 C   0  0  0  0  0  0  0  0  0
   -2.9316   -2.0217    0.0000 C   0  0  0  0  0  0  0  0  0
  1  2  4  0  0  0  0
  1  5  4  0  0  0  0
  2  3  4  0  0  0  0
  2 13  1  0  0  0  0
  3  4  4  0  0  0  0
  3 10  1  0  0  0  0
  4  5  4  0  0  0  0
  4  9  4  0  0  0  0
  5  6  4  0  0  0  0
  6  7  4  0  0  0  0
  7  8  4  0  0  0  0
  8  9  4  0  0  0  0
 10 11  2  0  0  0  0
 10 12  1  0  0  0  0
 12 13  1  0  0  0  0
 12 14  1  0  0  0  0
 14 15  4  0  0  0  0
 14 31  4  0  0  0  0
 15 16  4  0  0  0  0
 16 17  1  0  0  0  0
 16 27  4  0  0  0  0
 17 18  1  0  0  0  0
 18 19  1  0  0  0  0
 19 20  1  0  0  0  0
 20 21  1  0  0  0  0
 20 25  1  0  0  0  0
 21 22  1  0  0  0  0
 22 23  1  0  0  0  0
 23 24  1  0  0  0  0
 23 26  1  0  0  0  0
 24 25  1  0  0  0  0
 27 28  1  0  0  0  0
 27 30  4  0  0  0  0
 28 29  1  0  0  0  0
 30 31  4  0  0  0  0
M  END
>  <Name_Molregno>
394360

>  <5-HT2A>
6.1

>  <5-HT2C>
8.8

$$$$
394925
  Marvin  02231216192D 0   1.00000     0.00000     0

 27 30  0  0  0  0  0  0  0  0999 V2000
    0.3138   -0.5414    0.0000 O   0  0  0  0  0  0  0  0  0
   -0.5112   -0.5414    0.0000 C   0  0  0  0  0  0  0  0  0
   -0.9237    0.1731    0.0000 C   0  0  0  0  0  0  0  0  0
   -1.7487    0.1731    0.0000 N   0  0  0  0  0  0  0  0  0
   -2.1612   -0.5414    0.0000 C   0  0  0  0  0  0  0  0  0
   -2.9862   -0.5414    0.0000 C   0  0  0  0  0  0  0  0  0
   -3.3987    0.1731    0.0000 C   0  0  0  0  0  0  0  0  0
   -2.9862    0.8876    0.0000 C   0  0  0  0  0  0  0  0  0
   -2.1612    0.8876    0.0000 C   0  0  0  0  0  0  0  0  0
    0.7263   -1.2558    0.0000 C   0  0  0  0  0  0  0  0  0
    1.5513   -1.2558    0.0000 C   0  0  0  0  0  0  0  0  0
    1.9638   -1.9703    0.0000 C   0  0  0  0  0  0  0  0  0
    2.7888   -1.9703    0.0000 N   0  0  0  0  0  0  0  0  0
    3.2737   -2.6378    0.0000 C   0  0  0  0  0  0  0  0  0
    4.0584   -2.3828    0.0000 C   0  0  0  0  0  0  0  0  0
    4.0584   -1.5578    0.0000 C   0  0  0  0  0  0  0  0  0
    4.7728   -1.1453    0.0000 C   0  0  0  0  0  0  0  0  0
    5.4873   -1.5578    0.0000 C   0  0  0  0  0  0  0  0  0
    5.4873   -2.3828    0.0000 C   0  0  0  0  0  0  0  0  0
    4.7728   -2.7953    0.0000 C   0  0  0  0  0  0  0  0  0
    3.2737   -1.3029    0.0000 C   0  0  0  0  0  0  0  0  0
    3.0188   -0.5183    0.0000 O   0  0  0  0  0  0  0  0  0
    1.5513   -2.6848    0.0000 C   0  0  0  0  0  0  0  0  0
    0.7263   -2.6848    0.0000 C   0  0  0  0  0  0  0  0  0
    0.3138   -1.9703    0.0000 C   0  0  0  0  0  0  0  0  0
   -0.5112   -1.9703    0.0000 O   0  0  0  0  0  0  0  0  0
   -0.9237   -2.6848    0.0000 C   0  0  0  0  0  0  0  0  0
  1  2  1  0  0  0  0
  1 10  1  0  0  0  0
  2  3  1  0  0  0  0
  3  4  1  0  0  0  0
  4  5  1  0  0  0  0
  4  9  1  0  0  0  0
  5  6  1  0  0  0  0
  6  7  1  0  0  0  0
  7  8  1  0  0  0  0
  8  9  1  0  0  0  0
 10 11  4  0  0  0  0
 10 25  4  0  0  0  0
 11 12  4  0  0  0  0
 12 13  1  0  0  0  0
 12 23  4  0  0  0  0
 13 14  1  0  0  0  0
 13 21  1  0  0  0  0
 14 15  1  0  0  0  0
 15 16  4  0  0  0  0
 15 20  4  0  0  0  0
 16 17  4  0  0  0  0
 16 21  1  0  0  0  0
 17 18  4  0  0  0  0
 18 19  4  0  0  0  0
 19 20  4  0  0  0  0
 21 22  2  0  0  0  0
 23 24  4  0  0  0  0
 24 25  4  0  0  0  0
 25 26  1  0  0  0  0
 26 27  1  0  0  0  0
M  END
>  <Name_Molregno>
394925

>  <5-HT2A>
5

>  <5-HT2C>
7.3

$$$$
394927
  Marvin  02231216192D 0   1.00000     0.00000     0

 28 31  0  0  0  0  0  0  0  0999 V2000
    1.0396   -3.6073    0.0000 Cl  0  0  0  0  0  0  0  0  0
    1.0396   -2.7823    0.0000 C   0  0  0  0  0  0  0  0  0
    0.3251   -2.3698    0.0000 C   0  0  0  0  0  0  0  0  0
    0.3251   -1.5448    0.0000 C   0  0  0  0  0  0  0  0  0
    1.0396   -1.1323    0.0000 C   0  0  0  0  0  0  0  0  0
    1.7541   -1.5448    0.0000 C   0  0  0  0  0  0  0  0  0
    1.7541   -2.3698    0.0000 C   0  0  0  0  0  0  0  0  0
   -0.4595   -1.2898    0.0000 C   0  0  0  0  0  0  0  0  0
   -0.7144   -0.5052    0.0000 O   0  0  0  0  0  0  0  0  0
   -0.9444   -1.9573    0.0000 N   0  0  0  0  0  0  0  0  0
   -0.4595   -2.6247    0.0000 C   0  0  0  0  0  0  0  0  0
   -1.7694   -1.9573    0.0000 C   0  0  0  0  0  0  0  0  0
   -2.1819   -2.6717    0.0000 C   0  0  0  0  0  0  0  0  0
   -3.0069   -2.6717    0.0000 C   0  0  0  0  0  0  0  0  0
   -3.4194   -3.3862    0.0000 O   0  0  0  0  0  0  0  0  0
   -4.2444   -3.3862    0.0000 C   0  0  0  0  0  0  0  0  0
   -4.6569   -4.1007    0.0000 C   0  0  0  0  0  0  0  0  0
   -5.4819   -4.1007    0.0000 N   0  0  0  0  0  0  0  0  0
   -5.8944   -4.8151    0.0000 C   0  0  0  0  0  0  0  0  0
   -6.7194   -4.8151    0.0000 C   0  0  0  0  0  0  0  0  0
   -7.1319   -4.1007    0.0000 C   0  0  0  0  0  0  0  0  0
   -6.7194   -3.3862    0.0000 C   0  0  0  0  0  0  0  0  0
   -5.8944   -3.3862    0.0000 C   0  0  0  0  0  0  0  0  0
   -3.4194   -1.9573    0.0000 C   0  0  0  0  0  0  0  0  0
   -4.2444   -1.9573    0.0000 O   0  0  0  0  0  0  0  0  0
   -4.6569   -1.2428    0.0000 C   0  0  0  0  0  0  0  0  0
   -3.0069   -1.2428    0.0000 C   0  0  0  0  0  0  0  0  0
   -2.1819   -1.2428    0.0000 C   0  0  0  0  0  0  0  0  0
  1  2  1  0  0  0  0
  2  3  4  0  0  0  0
  2  7  4  0  0  0  0
  3  4  4  0  0  0  0
  3 11  1  0  0  0  0
  4  5  4  0  0  0  0
  4  8  1  0  0  0  0
  5  6  4  0  0  0  0
  6  7  4  0  0  0  0
  8  9  2  0  0  0  0
  8 10  1  0  0  0  0
 10 11  1  0  0  0  0
 10 12  1  0  0  0  0
 12 13  4  0  0  0  0
 12 28  4  0  0  0  0
 13 14  4  0  0  0  0
 14 15  1  0  0  0  0
 14 24  4  0  0  0  0
 15 16  1  0  0  0  0
 16 17  1  0  0  0  0
 17 18  1  0  0  0  0
 18 19  1  0  0  0  0
 18 23  1  0  0  0  0
 19 20  1  0  0  0  0
 20 21  1  0  0  0  0
 21 22  1  0  0  0  0
 22 23  1  0  0  0  0
 24 25  1  0  0  0  0
 24 27  4  0  0  0  0
 25 26  1  0  0  0  0
 27 28  4  0  0  0  0
M  END
>  <Name_Molregno>
394927

>  <5-HT2A>
5.1

>  <5-HT2C>
6.6

$$$$
394928
  Marvin  02231216192D 0   1.00000     0.00000     0

 28 31  0  0  0  0  0  0  0  0999 V2000
    1.3944   -1.9942    0.0000 Cl  0  0  0  0  0  0  0  0  0
    0.6799   -1.5817    0.0000 C   0  0  0  0  0  0  0  0  0
   -0.0345   -1.9942    0.0000 C   0  0  0  0  0  0  0  0  0
   -0.7490   -1.5817    0.0000 C   0  0  0  0  0  0  0  0  0
   -0.7490   -0.7567    0.0000 C   0  0  0  0  0  0  0  0  0
   -0.0345   -0.3442    0.0000 C   0  0  0  0  0  0  0  0  0
    0.6799   -0.7567    0.0000 C   0  0  0  0  0  0  0  0  0
   -1.5336   -0.5017    0.0000 C   0  0  0  0  0  0  0  0  0
   -1.7886    0.2829    0.0000 O   0  0  0  0  0  0  0  0  0
   -2.0185   -1.1692    0.0000 N   0  0  0  0  0  0  0  0  0
   -1.5336   -1.8366    0.0000 C   0  0  0  0  0  0  0  0  0
   -2.8435   -1.1692    0.0000 C   0  0  0  0  0  0  0  0  0
   -3.2560   -1.8837    0.0000 C   0  0  0  0  0  0  0  0  0
   -4.0810   -1.8837    0.0000 C   0  0  0  0  0  0  0  0  0
   -4.4935   -2.5981    0.0000 O   0  0  0  0  0  0  0  0  0
   -5.3185   -2.5981    0.0000 C   0  0  0  0  0  0  0  0  0
   -5.7310   -3.3126    0.0000 C   0  0  0  0  0  0  0  0  0
   -6.5560   -3.3126    0.0000 N   0  0  0  0  0  0  0  0  0
   -6.9685   -4.0271    0.0000 C   0  0  0  0  0  0  0  0  0
   -7.7935   -4.0271    0.0000 C   0  0  0  0  0  0  0  0  0
   -8.2060   -3.3126    0.0000 C   0  0  0  0  0  0  0  0  0
   -7.7935   -2.5981    0.0000 C   0  0  0  0  0  0  0  0  0
   -6.9685   -2.5981    0.0000 C   0  0  0  0  0  0  0  0  0
   -4.4935   -1.1692    0.0000 C   0  0  0  0  0  0  0  0  0
   -5.3185   -1.1692    0.0000 O   0  0  0  0  0  0  0  0  0
   -5.7310   -0.4547    0.0000 C   0  0  0  0  0  0  0  0  0
   -4.0810   -0.4547    0.0000 C   0  0  0  0  0  0  0  0  0
   -3.2560   -0.4547    0.0000 C   0  0  0  0  0  0  0  0  0
  1  2  1  0  0  0  0
  2  3  4  0  0  0  0
  2  7  4  0  0  0  0
  3  4  4  0  0  0  0
  4  5  4  0  0  0  0
  4 11  1  0  0  0  0
  5  6  4  0  0  0  0
  5  8  1  0  0  0  0
  6  7  4  0  0  0  0
  8  9  2  0  0  0  0
  8 10  1  0  0  0  0
 10 11  1  0  0  0  0
 10 12  1  0  0  0  0
 12 13  4  0  0  0  0
 12 28  4  0  0  0  0
 13 14  4  0  0  0  0
 14 15  1  0  0  0  0
 14 24  4  0  0  0  0
 15 16  1  0  0  0  0
 16 17  1  0  0  0  0
 17 18  1  0  0  0  0
 18 19  1  0  0  0  0
 18 23  1  0  0  0  0
 19 20  1  0  0  0  0
 20 21  1  0  0  0  0
 21 22  1  0  0  0  0
 22 23  1  0  0  0  0
 24 25  1  0  0  0  0
 24 27  4  0  0  0  0
 25 26  1  0  0  0  0
 27 28  4  0  0  0  0
M  END
>  <Name_Molregno>
394928

>  <5-HT2A>
5.2

>  <5-HT2C>
7.3

$$$$
394929
  Marvin  02231216192D 0   1.00000     0.00000     0

 28 31  0  0  0  0  0  0  0  0999 V2000
    8.4094    2.4204    0.0000 Cl  0  0  0  0  0  0  0  0  0
    7.6949    2.8329    0.0000 C   0  0  0  0  0  0  0  0  0
    6.9805    2.4204    0.0000 C   0  0  0  0  0  0  0  0  0
    6.2660    2.8329    0.0000 C   0  0  0  0  0  0  0  0  0
    6.2660    3.6579    0.0000 C   0  0  0  0  0  0  0  0  0
    5.4814    3.9128    0.0000 C   0  0  0  0  0  0  0  0  0
    4.9964    3.2454    0.0000 N   0  0  0  0  0  0  0  0  0
    5.4814    2.5780    0.0000 C   0  0  0  0  0  0  0  0  0
    5.2264    1.7933    0.0000 O   0  0  0  0  0  0  0  0  0
    4.1714    3.2454    0.0000 C   0  0  0  0  0  0  0  0  0
    3.7589    2.5309    0.0000 C   0  0  0  0  0  0  0  0  0
    2.9339    2.5309    0.0000 C   0  0  0  0  0  0  0  0  0
    2.5214    1.8164    0.0000 O   0  0  0  0  0  0  0  0  0
    1.6964    1.8164    0.0000 C   0  0  0  0  0  0  0  0  0
    1.2839    1.1020    0.0000 C   0  0  0  0  0  0  0  0  0
    0.4589    1.1020    0.0000 N   0  0  0  0  0  0  0  0  0
    0.0464    0.3875    0.0000 C   0  0  0  0  0  0  0  0  0
   -0.7786    0.3875    0.0000 C   0  0  0  0  0  0  0  0  0
   -1.1911    1.1020    0.0000 C   0  0  0  0  0  0  0  0  0
   -0.7786    1.8164    0.0000 C   0  0  0  0  0  0  0  0  0
    0.0464    1.8164    0.0000 C   0  0  0  0  0  0  0  0  0
    2.5214    3.2454    0.0000 C   0  0  0  0  0  0  0  0  0
    1.6964    3.2454    0.0000 O   0  0  0  0  0  0  0  0  0
    1.2839    3.9599    0.0000 C   0  0  0  0  0  0  0  0  0
    2.9339    3.9599    0.0000 C   0  0  0  0  0  0  0  0  0
    3.7589    3.9599    0.0000 C   0  0  0  0  0  0  0  0  0
    6.9805    4.0704    0.0000 C   0  0  0  0  0  0  0  0  0
    7.6949    3.6579    0.0000 C   0  0  0  0  0  0  0  0  0
  1  2  1  0  0  0  0
  2  3  4  0  0  0  0
  2 28  4  0  0  0  0
  3  4  4  0  0  0  0
  4  5  4  0  0  0  0
  4  8  1  0  0  0  0
  5  6  1  0  0  0  0
  5 27  4  0  0  0  0
  6  7  1  0  0  0  0
  7  8  1  0  0  0  0
  7 10  1  0  0  0  0
  8  9  2  0  0  0  0
 10 11  4  0  0  0  0
 10 26  4  0  0  0  0
 11 12  4  0  0  0  0
 12 13  1  0  0  0  0
 12 22  4  0  0  0  0
 13 14  1  0  0  0  0
 14 15  1  0  0  0  0
 15 16  1  0  0  0  0
 16 17  1  0  0  0  0
 16 21  1  0  0  0  0
 17 18  1  0  0  0  0
 18 19  1  0  0  0  0
 19 20  1  0  0  0  0
 20 21  1  0  0  0  0
 22 23  1  0  0  0  0
 22 25  4  0  0  0  0
 23 24  1  0  0  0  0
 25 26  4  0  0  0  0
 27 28  4  0  0  0  0
M  END
>  <Name_Molregno>
394929

>  <5-HT2A>
5.6

>  <5-HT2C>
7.8

$$$$
394930
  Marvin  02231216192D 0   1.00000     0.00000     0

 28 31  0  0  0  0  0  0  0  0999 V2000
    7.0943   -0.0619    0.0000 Cl  0  0  0  0  0  0  0  0  0
    7.0943    0.7631    0.0000 C   0  0  0  0  0  0  0  0  0
    6.3798    1.1756    0.0000 C   0  0  0  0  0  0  0  0  0
    6.3798    2.0006    0.0000 C   0  0  0  0  0  0  0  0  0
    5.5952    2.2555    0.0000 C   0  0  0  0  0  0  0  0  0
    5.1103    1.5881    0.0000 N   0  0  0  0  0  0  0  0  0
    5.5952    0.9206    0.0000 C   0  0  0  0  0  0  0  0  0
    5.3403    0.1360    0.0000 O   0  0  0  0  0  0  0  0  0
    4.2853    1.5881    0.0000 C   0  0  0  0  0  0  0  0  0
    3.8728    0.8736    0.0000 C   0  0  0  0  0  0  0  0  0
    3.0478    0.8736    0.0000 C   0  0  0  0  0  0  0  0  0
    2.6353    0.1591    0.0000 O   0  0  0  0  0  0  0  0  0
    1.8103    0.1591    0.0000 C   0  0  0  0  0  0  0  0  0
    1.3978   -0.5553    0.0000 C   0  0  0  0  0  0  0  0  0
    0.5728   -0.5553    0.0000 N   0  0  0  0  0  0  0  0  0
    0.1603   -1.2698    0.0000 C   0  0  0  0  0  0  0  0  0
   -0.6647   -1.2698    0.0000 C   0  0  0  0  0  0  0  0  0
   -1.0772   -0.5553    0.0000 C   0  0  0  0  0  0  0  0  0
   -0.6647    0.1591    0.0000 C   0  0  0  0  0  0  0  0  0
    0.1603    0.1591    0.0000 C   0  0  0  0  0  0  0  0  0
    2.6353    1.5881    0.0000 C   0  0  0  0  0  0  0  0  0
    1.8103    1.5881    0.0000 O   0  0  0  0  0  0  0  0  0
    1.3978    2.3025    0.0000 C   0  0  0  0  0  0  0  0  0
    3.0478    2.3025    0.0000 C   0  0  0  0  0  0  0  0  0
    3.8728    2.3025    0.0000 C   0  0  0  0  0  0  0  0  0
    7.0943    2.4131    0.0000 C   0  0  0  0  0  0  0  0  0
    7.8088    2.0006    0.0000 C   0  0  0  0  0  0  0  0  0
    7.8088    1.1756    0.0000 C   0  0  0  0  0  0  0  0  0
  1  2  1  0  0  0  0
  2  3  4  0  0  0  0
  2 28  4  0  0  0  0
  3  4  4  0  0  0  0
  3  7  1  0  0  0  0
  4  5  1  0  0  0  0
  4 26  4  0  0  0  0
  5  6  1  0  0  0  0
  6  7  1  0  0  0  0
  6  9  1  0  0  0  0
  7  8  2  0  0  0  0
  9 10  4  0  0  0  0
  9 25  4  0  0  0  0
 10 11  4  0  0  0  0
 11 12  1  0  0  0  0
 11 21  4  0  0  0  0
 12 13  1  0  0  0  0
 13 14  1  0  0  0  0
 14 15  1  0  0  0  0
 15 16  1  0  0  0  0
 15 20  1  0  0  0  0
 16 17  1  0  0  0  0
 17 18  1  0  0  0  0
 18 19  1  0  0  0  0
 19 20  1  0  0  0  0
 21 22  1  0  0  0  0
 21 24  4  0  0  0  0
 22 23  1  0  0  0  0
 24 25  4  0  0  0  0
 26 27  4  0  0  0  0
 27 28  4  0  0  0  0
M  END
>  <Name_Molregno>
394930

>  <5-HT2A>
6

>  <5-HT2C>
8.4

$$$$
394931
  Marvin  02231216192D 0   1.00000     0.00000     0

 29 32  0  0  0  0  0  0  0  0999 V2000
    1.0429   -3.6006    0.0000 Cl  0  0  0  0  0  0  0  0  0
    1.0429   -2.7756    0.0000 C   0  0  0  0  0  0  0  0  0
    0.3285   -2.3631    0.0000 C   0  0  0  0  0  0  0  0  0
    0.3285   -1.5381    0.0000 C   0  0  0  0  0  0  0  0  0
    1.0429   -1.1256    0.0000 C   0  0  0  0  0  0  0  0  0
    1.7574   -1.5381    0.0000 C   0  0  0  0  0  0  0  0  0
    1.7574   -2.3631    0.0000 C   0  0  0  0  0  0  0  0  0
   -0.4561   -1.2832    0.0000 C   0  0  0  0  0  0  0  0  0
   -0.7111   -0.4985    0.0000 O   0  0  0  0  0  0  0  0  0
   -0.9411   -1.9506    0.0000 N   0  0  0  0  0  0  0  0  0
   -0.4561   -2.6180    0.0000 C   0  0  0  0  0  0  0  0  0
   -1.7661   -1.9506    0.0000 C   0  0  0  0  0  0  0  0  0
   -2.1786   -2.6651    0.0000 C   0  0  0  0  0  0  0  0  0
   -3.0036   -2.6651    0.0000 C   0  0  0  0  0  0  0  0  0
   -3.4161   -3.3795    0.0000 O   0  0  0  0  0  0  0  0  0
   -4.2411   -3.3795    0.0000 C   0  0  0  0  0  0  0  0  0
   -4.6536   -4.0940    0.0000 C   0  0  0  0  0  0  0  0  0
   -5.4786   -4.0940    0.0000 N   0  0  0  0  0  0  0  0  0
   -5.8911   -4.8085    0.0000 C   0  0  0  0  0  0  0  0  0
   -6.7161   -4.8085    0.0000 C   0  0  0  0  0  0  0  0  0
   -7.1286   -4.0940    0.0000 C   0  0  0  0  0  0  0  0  0
   -6.7161   -3.3795    0.0000 C   0  0  0  0  0  0  0  0  0
   -5.8911   -3.3795    0.0000 C   0  0  0  0  0  0  0  0  0
   -7.9536   -4.0940    0.0000 C   0  0  0  0  0  0  0  0  0
   -3.4161   -1.9506    0.0000 C   0  0  0  0  0  0  0  0  0
   -4.2411   -1.9506    0.0000 O   0  0  0  0  0  0  0  0  0
   -4.6536   -1.2361    0.0000 C   0  0  0  0  0  0  0  0  0
   -3.0036   -1.2361    0.0000 C   0  0  0  0  0  0  0  0  0
   -2.1786   -1.2361    0.0000 C   0  0  0  0  0  0  0  0  0
  1  2  1  0  0  0  0
  2  3  4  0  0  0  0
  2  7  4  0  0  0  0
  3  4  4  0  0  0  0
  3 11  1  0  0  0  0
  4  5  4  0  0  0  0
  4  8  1  0  0  0  0
  5  6  4  0  0  0  0
  6  7  4  0  0  0  0
  8  9  2  0  0  0  0
  8 10  1  0  0  0  0
 10 11  1  0  0  0  0
 10 12  1  0  0  0  0
 12 13  4  0  0  0  0
 12 29  4  0  0  0  0
 13 14  4  0  0  0  0
 14 15  1  0  0  0  0
 14 25  4  0  0  0  0
 15 16  1  0  0  0  0
 16 17  1  0  0  0  0
 17 18  1  0  0  0  0
 18 19  1  0  0  0  0
 18 23  1  0  0  0  0
 19 20  1  0  0  0  0
 20 21  1  0  0  0  0
 21 22  1  0  0  0  0
 21 24  1  0  0  0  0
 22 23  1  0  0  0  0
 25 26  1  0  0  0  0
 25 28  4  0  0  0  0
 26 27  1  0  0  0  0
 28 29  4  0  0  0  0
M  END
>  <Name_Molregno>
394931

>  <5-HT2A>
5.8

>  <5-HT2C>
6.9

$$$$
394932
  Marvin  02231216192D 0   1.00000     0.00000     0

 29 32  0  0  0  0  0  0  0  0999 V2000
    0.1966   -0.9958    0.0000 Cl  0  0  0  0  0  0  0  0  0
   -0.5179   -0.5833    0.0000 C   0  0  0  0  0  0  0  0  0
   -1.2324   -0.9958    0.0000 C   0  0  0  0  0  0  0  0  0
   -1.9469   -0.5833    0.0000 C   0  0  0  0  0  0  0  0  0
   -1.9469    0.2417    0.0000 C   0  0  0  0  0  0  0  0  0
   -1.2324    0.6542    0.0000 C   0  0  0  0  0  0  0  0  0
   -0.5179    0.2417    0.0000 C   0  0  0  0  0  0  0  0  0
   -2.7315    0.4966    0.0000 C   0  0  0  0  0  0  0  0  0
   -2.9864    1.2813    0.0000 O   0  0  0  0  0  0  0  0  0
   -3.2164   -0.1708    0.0000 N   0  0  0  0  0  0  0  0  0
   -2.7315   -0.8382    0.0000 C   0  0  0  0  0  0  0  0  0
   -4.0414   -0.1708    0.0000 C   0  0  0  0  0  0  0  0  0
   -4.4539   -0.8853    0.0000 C   0  0  0  0  0  0  0  0  0
   -5.2789   -0.8853    0.0000 C   0  0  0  0  0  0  0  0  0
   -5.6914   -1.5997    0.0000 O   0  0  0  0  0  0  0  0  0
   -6.5164   -1.5997    0.0000 C   0  0  0  0  0  0  0  0  0
   -6.9289   -2.3142    0.0000 C   0  0  0  0  0  0  0  0  0
   -7.7539   -2.3142    0.0000 N   0  0  0  0  0  0  0  0  0
   -8.1664   -3.0287    0.0000 C   0  0  0  0  0  0  0  0  0
   -8.9914   -3.0287    0.0000 C   0  0  0  0  0  0  0  0  0
   -9.4039   -2.3142    0.0000 C   0  0  0  0  0  0  0  0  0
   -8.9914   -1.5997    0.0000 C   0  0  0  0  0  0  0  0  0
   -8.1664   -1.5997    0.0000 C   0  0  0  0  0  0  0  0  0
  -10.2289   -2.3142    0.0000 C   0  0  0  0  0  0  0  0  0
   -5.6914   -0.1708    0.0000 C   0  0  0  0  0  0  0  0  0
   -6.5164   -0.1708    0.0000 O   0  0  0  0  0  0  0  0  0
   -6.9289    0.5437    0.0000 C   0  0  0  0  0  0  0  0  0
   -5.2789    0.5437    0.0000 C   0  0  0  0  0  0  0  0  0
   -4.4539    0.5437    0.0000 C   0  0  0  0  0  0  0  0  0
  1  2  1  0  0  0  0
  2  3  4  0  0  0  0
  2  7  4  0  0  0  0
  3  4  4  0  0  0  0
  4  5  4  0  0  0  0
  4 11  1  0  0  0  0
  5  6  4  0  0  0  0
  5  8  1  0  0  0  0
  6  7  4  0  0  0  0
  8  9  2  0  0  0  0
  8 10  1  0  0  0  0
 10 11  1  0  0  0  0
 10 12  1  0  0  0  0
 12 13  4  0  0  0  0
 12 29  4  0  0  0  0
 13 14  4  0  0  0  0
 14 15  1  0  0  0  0
 14 25  4  0  0  0  0
 15 16  1  0  0  0  0
 16 17  1  0  0  0  0
 17 18  1  0  0  0  0
 18 19  1  0  0  0  0
 18 23  1  0  0  0  0
 19 20  1  0  0  0  0
 20 21  1  0  0  0  0
 21 22  1  0  0  0  0
 21 24  1  0  0  0  0
 22 23  1  0  0  0  0
 25 26  1  0  0  0  0
 25 28  4  0  0  0  0
 26 27  1  0  0  0  0
 28 29  4  0  0  0  0
M  END
>  <Name_Molregno>
394932

>  <5-HT2A>
6

>  <5-HT2C>
7.6

$$$$
394933
  Marvin  02231216192D 0   1.00000     0.00000     0

 29 32  0  0  0  0  0  0  0  0999 V2000
    8.7304    2.4144    0.0000 Cl  0  0  0  0  0  0  0  0  0
    8.0159    2.8269    0.0000 C   0  0  0  0  0  0  0  0  0
    7.3014    2.4144    0.0000 C   0  0  0  0  0  0  0  0  0
    6.5870    2.8269    0.0000 C   0  0  0  0  0  0  0  0  0
    6.5870    3.6519    0.0000 C   0  0  0  0  0  0  0  0  0
    5.8023    3.9069    0.0000 C   0  0  0  0  0  0  0  0  0
    5.3174    3.2394    0.0000 N   0  0  0  0  0  0  0  0  0
    5.8023    2.5720    0.0000 C   0  0  0  0  0  0  0  0  0
    5.5474    1.7874    0.0000 O   0  0  0  0  0  0  0  0  0
    4.4924    3.2394    0.0000 C   0  0  0  0  0  0  0  0  0
    4.0799    2.5250    0.0000 C   0  0  0  0  0  0  0  0  0
    3.2549    2.5250    0.0000 C   0  0  0  0  0  0  0  0  0
    2.8424    1.8105    0.0000 O   0  0  0  0  0  0  0  0  0
    2.0174    1.8105    0.0000 C   0  0  0  0  0  0  0  0  0
    1.6049    1.0960    0.0000 C   0  0  0  0  0  0  0  0  0
    0.7799    1.0960    0.0000 N   0  0  0  0  0  0  0  0  0
    0.3674    0.3816    0.0000 C   0  0  0  0  0  0  0  0  0
   -0.4576    0.3816    0.0000 C   0  0  0  0  0  0  0  0  0
   -0.8701    1.0960    0.0000 C   0  0  0  0  0  0  0  0  0
   -0.4576    1.8105    0.0000 C   0  0  0  0  0  0  0  0  0
    0.3674    1.8105    0.0000 C   0  0  0  0  0  0  0  0  0
   -1.6951    1.0960    0.0000 C   0  0  0  0  0  0  0  0  0
    2.8424    3.2394    0.0000 C   0  0  0  0  0  0  0  0  0
    2.0174    3.2394    0.0000 O   0  0  0  0  0  0  0  0  0
    1.6049    3.9539    0.0000 C   0  0  0  0  0  0  0  0  0
    3.2549    3.9539    0.0000 C   0  0  0  0  0  0  0  0  0
    4.0799    3.9539    0.0000 C   0  0  0  0  0  0  0  0  0
    7.3014    4.0644    0.0000 C   0  0  0  0  0  0  0  0  0
    8.0159    3.6519    0.0000 C   0  0  0  0  0  0  0  0  0
  1  2  1  0  0  0  0
  2  3  4  0  0  0  0
  2 29  4  0  0  0  0
  3  4  4  0  0  0  0
  4  5  4  0  0  0  0
  4  8  1  0  0  0  0
  5  6  1  0  0  0  0
  5 28  4  0  0  0  0
  6  7  1  0  0  0  0
  7  8  1  0  0  0  0
  7 10  1  0  0  0  0
  8  9  2  0  0  0  0
 10 11  4  0  0  0  0
 10 27  4  0  0  0  0
 11 12  4  0  0  0  0
 12 13  1  0  0  0  0
 12 23  4  0  0  0  0
 13 14  1  0  0  0  0
 14 15  1  0  0  0  0
 15 16  1  0  0  0  0
 16 17  1  0  0  0  0
 16 21  1  0  0  0  0
 17 18  1  0  0  0  0
 18 19  1  0  0  0  0
 19 20  1  0  0  0  0
 19 22  1  0  0  0  0
 20 21  1  0  0  0  0
 23 24  1  0  0  0  0
 23 26  4  0  0  0  0
 24 25  1  0  0  0  0
 26 27  4  0  0  0  0
 28 29  4  0  0  0  0
M  END
>  <Name_Molregno>
394933

>  <5-HT2A>
6.1

>  <5-HT2C>
7.7

$$$$
394934
  Marvin  02231216192D 0   1.00000     0.00000     0

 29 32  0  0  0  0  0  0  0  0999 V2000
    7.4469   -1.5282    0.0000 Cl  0  0  0  0  0  0  0  0  0
    7.4469   -0.7032    0.0000 C   0  0  0  0  0  0  0  0  0
    6.7324   -0.2907    0.0000 C   0  0  0  0  0  0  0  0  0
    6.7324    0.5343    0.0000 C   0  0  0  0  0  0  0  0  0
    5.9478    0.7892    0.0000 C   0  0  0  0  0  0  0  0  0
    5.4629    0.1218    0.0000 N   0  0  0  0  0  0  0  0  0
    5.9478   -0.5456    0.0000 C   0  0  0  0  0  0  0  0  0
    5.6928   -1.3303    0.0000 O   0  0  0  0  0  0  0  0  0
    4.6379    0.1218    0.0000 C   0  0  0  0  0  0  0  0  0
    4.2254   -0.5927    0.0000 C   0  0  0  0  0  0  0  0  0
    3.4004   -0.5927    0.0000 C   0  0  0  0  0  0  0  0  0
    2.9879   -1.3071    0.0000 O   0  0  0  0  0  0  0  0  0
    2.1629   -1.3071    0.0000 C   0  0  0  0  0  0  0  0  0
    1.7504   -2.0216    0.0000 C   0  0  0  0  0  0  0  0  0
    0.9254   -2.0216    0.0000 N   0  0  0  0  0  0  0  0  0
    0.5129   -2.7361    0.0000 C   0  0  0  0  0  0  0  0  0
   -0.3121   -2.7361    0.0000 C   0  0  0  0  0  0  0  0  0
   -0.7246   -2.0216    0.0000 C   0  0  0  0  0  0  0  0  0
   -0.3121   -1.3071    0.0000 C   0  0  0  0  0  0  0  0  0
    0.5129   -1.3071    0.0000 C   0  0  0  0  0  0  0  0  0
   -1.5496   -2.0216    0.0000 C   0  0  0  0  0  0  0  0  0
    2.9879    0.1218    0.0000 C   0  0  0  0  0  0  0  0  0
    2.1629    0.1218    0.0000 O   0  0  0  0  0  0  0  0  0
    1.7504    0.8363    0.0000 C   0  0  0  0  0  0  0  0  0
    3.4004    0.8363    0.0000 C   0  0  0  0  0  0  0  0  0
    4.2254    0.8363    0.0000 C   0  0  0  0  0  0  0  0  0
    7.4469    0.9468    0.0000 C   0  0  0  0  0  0  0  0  0
    8.1613    0.5343    0.0000 C   0  0  0  0  0  0  0  0  0
    8.1613   -0.2907    0.0000 C   0  0  0  0  0  0  0  0  0
  1  2  1  0  0  0  0
  2  3  4  0  0  0  0
  2 29  4  0  0  0  0
  3  4  4  0  0  0  0
  3  7  1  0  0  0  0
  4  5  1  0  0  0  0
  4 27  4  0  0  0  0
  5  6  1  0  0  0  0
  6  7  1  0  0  0  0
  6  9  1  0  0  0  0
  7  8  2  0  0  0  0
  9 10  4  0  0  0  0
  9 26  4  0  0  0  0
 10 11  4  0  0  0  0
 11 12  1  0  0  0  0
 11 22  4  0  0  0  0
 12 13  1  0  0  0  0
 13 14  1  0  0  0  0
 14 15  1  0  0  0  0
 15 16  1  0  0  0  0
 15 20  1  0  0  0  0
 16 17  1  0  0  0  0
 17 18  1  0  0  0  0
 18 19  1  0  0  0  0
 18 21  1  0  0  0  0
 19 20  1  0  0  0  0
 22 23  1  0  0  0  0
 22 25  4  0  0  0  0
 23 24  1  0  0  0  0
 25 26  4  0  0  0  0
 27 28  4  0  0  0  0
 28 29  4  0  0  0  0
M  END
>  <Name_Molregno>
394934

>  <5-HT2A>
6.1

>  <5-HT2C>
8.8

$$$$
394935
  Marvin  02231216192D 0   1.00000     0.00000     0

 28 31  0  0  0  0  0  0  0  0999 V2000
    7.0943   -0.0619    0.0000 F   0  0  0  0  0  0  0  0  0
    7.0943    0.7631    0.0000 C   0  0  0  0  0  0  0  0  0
    6.3798    1.1756    0.0000 C   0  0  0  0  0  0  0  0  0
    6.3798    2.0006    0.0000 C   0  0  0  0  0  0  0  0  0
    5.5952    2.2555    0.0000 C   0  0  0  0  0  0  0  0  0
    5.1103    1.5881    0.0000 N   0  0  0  0  0  0  0  0  0
    5.5952    0.9206    0.0000 C   0  0  0  0  0  0  0  0  0
    5.3403    0.1360    0.0000 O   0  0  0  0  0  0  0  0  0
    4.2853    1.5881    0.0000 C   0  0  0  0  0  0  0  0  0
    3.8728    0.8736    0.0000 C   0  0  0  0  0  0  0  0  0
    3.0478    0.8736    0.0000 C   0  0  0  0  0  0  0  0  0
    2.6353    0.1591    0.0000 O   0  0  0  0  0  0  0  0  0
    1.8103    0.1591    0.0000 C   0  0  0  0  0  0  0  0  0
    1.3978   -0.5553    0.0000 C   0  0  0  0  0  0  0  0  0
    0.5728   -0.5553    0.0000 N   0  0  0  0  0  0  0  0  0
    0.1603   -1.2698    0.0000 C   0  0  0  0  0  0  0  0  0
   -0.6647   -1.2698    0.0000 C   0  0  0  0  0  0  0  0  0
   -1.0772   -0.5553    0.0000 C   0  0  0  0  0  0  0  0  0
   -0.6647    0.1591    0.0000 C   0  0  0  0  0  0  0  0  0
    0.1603    0.1591    0.0000 C   0  0  0  0  0  0  0  0  0
    2.6353    1.5881    0.0000 C   0  0  0  0  0  0  0  0  0
    1.8103    1.5881    0.0000 O   0  0  0  0  0  0  0  0  0
    1.3978    2.3025    0.0000 C   0  0  0  0  0  0  0  0  0
    3.0478    2.3025    0.0000 C   0  0  0  0  0  0  0  0  0
    3.8728    2.3025    0.0000 C   0  0  0  0  0  0  0  0  0
    7.0943    2.4131    0.0000 C   0  0  0  0  0  0  0  0  0
    7.8088    2.0006    0.0000 C   0  0  0  0  0  0  0  0  0
    7.8088    1.1756    0.0000 C   0  0  0  0  0  0  0  0  0
  1  2  1  0  0  0  0
  2  3  4  0  0  0  0
  2 28  4  0  0  0  0
  3  4  4  0  0  0  0
  3  7  1  0  0  0  0
  4  5  1  0  0  0  0
  4 26  4  0  0  0  0
  5  6  1  0  0  0  0
  6  7  1  0  0  0  0
  6  9  1  0  0  0  0
  7  8  2  0  0  0  0
  9 10  4  0  0  0  0
  9 25  4  0  0  0  0
 10 11  4  0  0  0  0
 11 12  1  0  0  0  0
 11 21  4  0  0  0  0
 12 13  1  0  0  0  0
 13 14  1  0  0  0  0
 14 15  1  0  0  0  0
 15 16  1  0  0  0  0
 15 20  1  0  0  0  0
 16 17  1  0  0  0  0
 17 18  1  0  0  0  0
 18 19  1  0  0  0  0
 19 20  1  0  0  0  0
 21 22  1  0  0  0  0
 21 24  4  0  0  0  0
 22 23  1  0  0  0  0
 24 25  4  0  0  0  0
 26 27  4  0  0  0  0
 27 28  4  0  0  0  0
M  END
>  <Name_Molregno>
394935

>  <5-HT2A>
5

>  <5-HT2C>
7.1

$$$$
394936
  Marvin  02231216192D 0   1.00000     0.00000     0

 29 32  0  0  0  0  0  0  0  0999 V2000
    7.4469   -1.5282    0.0000 Br  0  0  0  0  0  0  0  0  0
    7.4469   -0.7032    0.0000 C   0  0  0  0  0  0  0  0  0
    6.7324   -0.2907    0.0000 C   0  0  0  0  0  0  0  0  0
    6.7324    0.5343    0.0000 C   0  0  0  0  0  0  0  0  0
    5.9478    0.7892    0.0000 C   0  0  0  0  0  0  0  0  0
    5.4629    0.1218    0.0000 N   0  0  0  0  0  0  0  0  0
    5.9478   -0.5456    0.0000 C   0  0  0  0  0  0  0  0  0
    5.6928   -1.3303    0.0000 O   0  0  0  0  0  0  0  0  0
    4.6379    0.1218    0.0000 C   0  0  0  0  0  0  0  0  0
    4.2254   -0.5927    0.0000 C   0  0  0  0  0  0  0  0  0
    3.4004   -0.5927    0.0000 C   0  0  0  0  0  0  0  0  0
    2.9879   -1.3071    0.0000 O   0  0  0  0  0  0  0  0  0
    2.1629   -1.3071    0.0000 C   0  0  0  0  0  0  0  0  0
    1.7504   -2.0216    0.0000 C   0  0  0  0  0  0  0  0  0
    0.9254   -2.0216    0.0000 N   0  0  0  0  0  0  0  0  0
    0.5129   -2.7361    0.0000 C   0  0  0  0  0  0  0  0  0
   -0.3121   -2.7361    0.0000 C   0  0  0  0  0  0  0  0  0
   -0.7246   -2.0216    0.0000 C   0  0  0  0  0  0  0  0  0
   -0.3121   -1.3071    0.0000 C   0  0  0  0  0  0  0  0  0
    0.5129   -1.3071    0.0000 C   0  0  0  0  0  0  0  0  0
   -1.5496   -2.0216    0.0000 C   0  0  0  0  0  0  0  0  0
    2.9879    0.1218    0.0000 C   0  0  0  0  0  0  0  0  0
    2.1629    0.1218    0.0000 O   0  0  0  0  0  0  0  0  0
    1.7504    0.8363    0.0000 C   0  0  0  0  0  0  0  0  0
    3.4004    0.8363    0.0000 C   0  0  0  0  0  0  0  0  0
    4.2254    0.8363    0.0000 C   0  0  0  0  0  0  0  0  0
    7.4469    0.9468    0.0000 C   0  0  0  0  0  0  0  0  0
    8.1613    0.5343    0.0000 C   0  0  0  0  0  0  0  0  0
    8.1613   -0.2907    0.0000 C   0  0  0  0  0  0  0  0  0
  1  2  1  0  0  0  0
  2  3  4  0  0  0  0
  2 29  4  0  0  0  0
  3  4  4  0  0  0  0
  3  7  1  0  0  0  0
  4  5  1  0  0  0  0
  4 27  4  0  0  0  0
  5  6  1  0  0  0  0
  6  7  1  0  0  0  0
  6  9  1  0  0  0  0
  7  8  2  0  0  0  0
  9 10  4  0  0  0  0
  9 26  4  0  0  0  0
 10 11  4  0  0  0  0
 11 12  1  0  0  0  0
 11 22  4  0  0  0  0
 12 13  1  0  0  0  0
 13 14  1  0  0  0  0
 14 15  1  0  0  0  0
 15 16  1  0  0  0  0
 15 20  1  0  0  0  0
 16 17  1  0  0  0  0
 17 18  1  0  0  0  0
 18 19  1  0  0  0  0
 18 21  1  0  0  0  0
 19 20  1  0  0  0  0
 22 23  1  0  0  0  0
 22 25  4  0  0  0  0
 23 24  1  0  0  0  0
 25 26  4  0  0  0  0
 27 28  4  0  0  0  0
 28 29  4  0  0  0  0
M  END
>  <Name_Molregno>
394936

>  <5-HT2A>
6.2

>  <5-HT2C>
9.1

$$$$
394937
  Marvin  02231216192D 0   1.00000     0.00000     0

 32 35  0  0  0  0  0  0  0  0999 V2000
    7.8818   -1.2128    0.0000 F   0  0  0  0  0  0  0  0  0
    7.8818   -0.3878    0.0000 C   0  0  0  0  0  0  0  0  0
    8.7068   -0.3878    0.0000 F   0  0  0  0  0  0  0  0  0
    7.0568   -0.3878    0.0000 F   0  0  0  0  0  0  0  0  0
    7.8818    0.4372    0.0000 C   0  0  0  0  0  0  0  0  0
    7.1673    0.8497    0.0000 C   0  0  0  0  0  0  0  0  0
    7.1673    1.6747    0.0000 C   0  0  0  0  0  0  0  0  0
    6.3827    1.9297    0.0000 C   0  0  0  0  0  0  0  0  0
    5.8978    1.2622    0.0000 N   0  0  0  0  0  0  0  0  0
    6.3827    0.5948    0.0000 C   0  0  0  0  0  0  0  0  0
    6.1277   -0.1898    0.0000 O   0  0  0  0  0  0  0  0  0
    5.0728    1.2622    0.0000 C   0  0  0  0  0  0  0  0  0
    4.6603    0.5478    0.0000 C   0  0  0  0  0  0  0  0  0
    3.8353    0.5478    0.0000 C   0  0  0  0  0  0  0  0  0
    3.4228   -0.1667    0.0000 O   0  0  0  0  0  0  0  0  0
    2.5978   -0.1667    0.0000 C   0  0  0  0  0  0  0  0  0
    2.1853   -0.8812    0.0000 C   0  0  0  0  0  0  0  0  0
    1.3603   -0.8812    0.0000 N   0  0  0  0  0  0  0  0  0
    0.9478   -1.5956    0.0000 C   0  0  0  0  0  0  0  0  0
    0.1228   -1.5956    0.0000 C   0  0  0  0  0  0  0  0  0
   -0.2897   -0.8812    0.0000 C   0  0  0  0  0  0  0  0  0
    0.1228   -0.1667    0.0000 C   0  0  0  0  0  0  0  0  0
    0.9478   -0.1667    0.0000 C   0  0  0  0  0  0  0  0  0
   -1.1147   -0.8812    0.0000 C   0  0  0  0  0  0  0  0  0
    3.4228    1.2622    0.0000 C   0  0  0  0  0  0  0  0  0
    2.5978    1.2622    0.0000 O   0  0  0  0  0  0  0  0  0
    2.1853    1.9767    0.0000 C   0  0  0  0  0  0  0  0  0
    3.8353    1.9767    0.0000 C   0  0  0  0  0  0  0  0  0
    4.6603    1.9767    0.0000 C   0  0  0  0  0  0  0  0  0
    7.8818    2.0872    0.0000 C   0  0  0  0  0  0  0  0  0
    8.5962    1.6747    0.0000 C   0  0  0  0  0  0  0  0  0
    8.5962    0.8497    0.0000 C   0  0  0  0  0  0  0  0  0
  1  2  1  0  0  0  0
  2  3  1  0  0  0  0
  2  4  1  0  0  0  0
  2  5  1  0  0  0  0
  5  6  4  0  0  0  0
  5 32  4  0  0  0  0
  6  7  4  0  0  0  0
  6 10  1  0  0  0  0
  7  8  1  0  0  0  0
  7 30  4  0  0  0  0
  8  9  1  0  0  0  0
  9 10  1  0  0  0  0
  9 12  1  0  0  0  0
 10 11  2  0  0  0  0
 12 13  4  0  0  0  0
 12 29  4  0  0  0  0
 13 14  4  0  0  0  0
 14 15  1  0  0  0  0
 14 25  4  0  0  0  0
 15 16  1  0  0  0  0
 16 17  1  0  0  0  0
 17 18  1  0  0  0  0
 18 19  1  0  0  0  0
 18 23  1  0  0  0  0
 19 20  1  0  0  0  0
 20 21  1  0  0  0  0
 21 22  1  0  0  0  0
 21 24  1  0  0  0  0
 22 23  1  0  0  0  0
 25 26  1  0  0  0  0
 25 28  4  0  0  0  0
 26 27  1  0  0  0  0
 28 29  4  0  0  0  0
 30 31  4  0  0  0  0
 31 32  4  0  0  0  0
M  END
>  <Name_Molregno>
394937

>  <5-HT2A>
6.2

>  <5-HT2C>
8.8

$$$$
394939
  Marvin  02231216192D 0   1.00000     0.00000     0

 30 33  0  0  0  0  0  0  0  0999 V2000
   -2.0918   -0.8133    0.0000 O   0  0  0  0  0  0  0  0  0
   -2.9168   -0.8133    0.0000 C   0  0  0  0  0  0  0  0  0
   -3.3293   -0.0988    0.0000 C   0  0  0  0  0  0  0  0  0
   -4.1543   -0.0988    0.0000 N   0  0  0  0  0  0  0  0  0
   -4.5668   -0.8133    0.0000 C   0  0  0  0  0  0  0  0  0
   -5.3918   -0.8133    0.0000 C   0  0  0  0  0  0  0  0  0
   -5.8043   -0.0988    0.0000 C   0  0  0  0  0  0  0  0  0
   -5.3918    0.6157    0.0000 C   0  0  0  0  0  0  0  0  0
   -4.5668    0.6157    0.0000 C   0  0  0  0  0  0  0  0  0
   -6.6293   -0.0988    0.0000 C   0  0  0  0  0  0  0  0  0
   -1.6793   -1.5277    0.0000 C   0  0  0  0  0  0  0  0  0
   -0.8543   -1.5277    0.0000 C   0  0  0  0  0  0  0  0  0
   -0.4418   -2.2422    0.0000 C   0  0  0  0  0  0  0  0  0
    0.3832   -2.2422    0.0000 N   0  0  0  0  0  0  0  0  0
    0.8681   -2.9097    0.0000 C   0  0  0  0  0  0  0  0  0
    1.6527   -2.6547    0.0000 C   0  0  0  0  0  0  0  0  0
    1.6527   -1.8297    0.0000 C   0  0  0  0  0  0  0  0  0
    2.3672   -1.4172    0.0000 C   0  0  0  0  0  0  0  0  0
    3.0817   -1.8297    0.0000 C   0  0  0  0  0  0  0  0  0
    3.0817   -2.6547    0.0000 C   0  0  0  0  0  0  0  0  0
    2.3672   -3.0672    0.0000 C   0  0  0  0  0  0  0  0  0
    2.3672   -0.5922    0.0000 C   0  0  0  0  0  0  0  0  0
    2.3672    0.2328    0.0000 N   0  0  0  0  0  0  0  0  0
    0.8681   -1.5748    0.0000 C   0  0  0  0  0  0  0  0  0
    0.6132   -0.7902    0.0000 O   0  0  0  0  0  0  0  0  0
   -0.8543   -2.9567    0.0000 C   0  0  0  0  0  0  0  0  0
   -1.6793   -2.9567    0.0000 C   0  0  0  0  0  0  0  0  0
   -2.0918   -2.2422    0.0000 C   0  0  0  0  0  0  0  0  0
   -2.9168   -2.2422    0.0000 O   0  0  0  0  0  0  0  0  0
   -3.3293   -2.9567    0.0000 C   0  0  0  0  0  0  0  0  0
  1  2  1  0  0  0  0
  1 11  1  0  0  0  0
  2  3  1  0  0  0  0
  3  4  1  0  0  0  0
  4  5  1  0  0  0  0
  4  9  1  0  0  0  0
  5  6  1  0  0  0  0
  6  7  1  0  0  0  0
  7  8  1  0  0  0  0
  7 10  1  0  0  0  0
  8  9  1  0  0  0  0
 11 12  4  0  0  0  0
 11 28  4  0  0  0  0
 12 13  4  0  0  0  0
 13 14  1  0  0  0  0
 13 26  4  0  0  0  0
 14 15  1  0  0  0  0
 14 24  1  0  0  0  0
 15 16  1  0  0  0  0
 16 17  4  0  0  0  0
 16 21  4  0  0  0  0
 17 18  4  0  0  0  0
 17 24  1  0  0  0  0
 18 19  4  0  0  0  0
 18 22  1  0  0  0  0
 19 20  4  0  0  0  0
 20 21  4  0  0  0  0
 22 23  3  0  0  0  0
 24 25  2  0  0  0  0
 26 27  4  0  0  0  0
 27 28  4  0  0  0  0
 28 29  1  0  0  0  0
 29 30  1  0  0  0  0
M  END
>  <Name_Molregno>
394939

>  <5-HT2A>
5.5

>  <5-HT2C>
8

$$$$
394940
  Marvin  02231216192D 0   1.00000     0.00000     0

 29 32  0  0  0  0  0  0  0  0999 V2000
   -2.3895   -0.7139    0.0000 O   0  0  0  0  0  0  0  0  0
   -3.2145   -0.7139    0.0000 C   0  0  0  0  0  0  0  0  0
   -3.6270    0.0006    0.0000 C   0  0  0  0  0  0  0  0  0
   -4.4520    0.0006    0.0000 N   0  0  0  0  0  0  0  0  0
   -4.8645   -0.7139    0.0000 C   0  0  0  0  0  0  0  0  0
   -5.6895   -0.7139    0.0000 C   0  0  0  0  0  0  0  0  0
   -6.1020    0.0006    0.0000 C   0  0  0  0  0  0  0  0  0
   -5.6895    0.7150    0.0000 C   0  0  0  0  0  0  0  0  0
   -4.8645    0.7150    0.0000 C   0  0  0  0  0  0  0  0  0
   -1.9770   -1.4284    0.0000 C   0  0  0  0  0  0  0  0  0
   -1.1520   -1.4284    0.0000 C   0  0  0  0  0  0  0  0  0
   -0.7395   -2.1429    0.0000 C   0  0  0  0  0  0  0  0  0
    0.0855   -2.1429    0.0000 N   0  0  0  0  0  0  0  0  0
    0.5705   -2.8103    0.0000 C   0  0  0  0  0  0  0  0  0
    1.3551   -2.5554    0.0000 C   0  0  0  0  0  0  0  0  0
    1.3551   -1.7304    0.0000 C   0  0  0  0  0  0  0  0  0
    0.5705   -1.4754    0.0000 C   0  0  0  0  0  0  0  0  0
    0.3155   -0.6908    0.0000 O   0  0  0  0  0  0  0  0  0
    2.0696   -1.3179    0.0000 C   0  0  0  0  0  0  0  0  0
    2.0696   -0.4929    0.0000 O   0  0  0  0  0  0  0  0  0
    1.3551   -0.0804    0.0000 C   0  0  0  0  0  0  0  0  0
    2.7840   -1.7304    0.0000 C   0  0  0  0  0  0  0  0  0
    2.7840   -2.5554    0.0000 C   0  0  0  0  0  0  0  0  0
    2.0696   -2.9679    0.0000 C   0  0  0  0  0  0  0  0  0
   -1.1520   -2.8573    0.0000 C   0  0  0  0  0  0  0  0  0
   -1.9770   -2.8573    0.0000 C   0  0  0  0  0  0  0  0  0
   -2.3895   -2.1429    0.0000 C   0  0  0  0  0  0  0  0  0
   -3.2145   -2.1429    0.0000 O   0  0  0  0  0  0  0  0  0
   -3.6270   -2.8573    0.0000 C   0  0  0  0  0  0  0  0  0
  1  2  1  0  0  0  0
  1 10  1  0  0  0  0
  2  3  1  0  0  0  0
  3  4  1  0  0  0  0
  4  5  1  0  0  0  0
  4  9  1  0  0  0  0
  5  6  1  0  0  0  0
  6  7  1  0  0  0  0
  7  8  1  0  0  0  0
  8  9  1  0  0  0  0
 10 11  4  0  0  0  0
 10 27  4  0  0  0  0
 11 12  4  0  0  0  0
 12 13  1  0  0  0  0
 12 25  4  0  0  0  0
 13 14  1  0  0  0  0
 13 17  1  0  0  0  0
 14 15  1  0  0  0  0
 15 16  4  0  0  0  0
 15 24  4  0  0  0  0
 16 17  1  0  0  0  0
 16 19  4  0  0  0  0
 17 18  2  0  0  0  0
 19 20  1  0  0  0  0
 19 22  4  0  0  0  0
 20 21  1  0  0  0  0
 22 23  4  0  0  0  0
 23 24  4  0  0  0  0
 25 26  4  0  0  0  0
 26 27  4  0  0  0  0
 27 28  1  0  0  0  0
 28 29  1  0  0  0  0
M  END
>  <Name_Molregno>
394940

>  <5-HT2A>
5.2

>  <5-HT2C>
6.7

$$$$
394942
  Marvin  02231216192D 0   1.00000     0.00000     0

 30 33  0  0  1  0  0  0  0  0999 V2000
   -0.5170   -1.0697    0.0000 Cl  0  0  0  0  0  0  0  0  0
   -0.5170   -0.2447    0.0000 C   0  0  0  0  0  0  0  0  0
   -1.2315    0.1678    0.0000 C   0  0  0  0  0  0  0  0  0
   -1.2315    0.9928    0.0000 C   0  0  0  0  0  0  0  0  0
   -0.5170    1.4053    0.0000 C   0  0  0  0  0  0  0  0  0
    0.1974    0.9928    0.0000 C   0  0  0  0  0  0  0  0  0
    0.1974    0.1678    0.0000 C   0  0  0  0  0  0  0  0  0
   -2.0161    1.2477    0.0000 C   0  0  0  0  0  0  0  0  0
   -2.5010    0.5803    0.0000 N   0  0  0  0  0  0  0  0  0
   -2.0161   -0.0872    0.0000 C   0  0  0  0  0  0  0  0  0
   -2.2711   -0.8718    0.0000 O   0  0  0  0  0  0  0  0  0
   -3.3260    0.5803    0.0000 C   0  0  0  0  0  0  0  0  0
   -3.7385   -0.1342    0.0000 C   0  0  0  0  0  0  0  0  0
   -4.5635   -0.1342    0.0000 C   0  0  0  0  0  0  0  0  0
   -4.9760   -0.8487    0.0000 O   0  0  0  0  0  0  0  0  0
   -5.8010   -0.8487    0.0000 C   0  0  0  0  0  0  0  0  0
   -6.2135   -1.5632    0.0000 C   0  0  0  0  0  0  0  0  0
   -7.0385   -1.5632    0.0000 N   0  0  0  0  0  0  0  0  0
   -7.4510   -2.2776    0.0000 C   0  0  0  0  0  0  0  0  0
   -8.2760   -2.2776    0.0000 C   0  0  0  0  0  0  0  0  0
   -8.6885   -1.5632    0.0000 C   0  0  0  0  0  0  0  0  0
   -8.2760   -0.8487    0.0000 C   0  0  0  0  0  0  0  0  0
   -7.4510   -0.8487    0.0000 C   0  0  0  0  0  0  0  0  0
   -9.5135   -1.5632    0.0000 C   0  0  0  0  0  0  0  0  0
   -4.9760    0.5803    0.0000 C   0  0  0  0  0  0  0  0  0
   -5.8010    0.5803    0.0000 O   0  0  0  0  0  0  0  0  0
   -6.2135    1.2947    0.0000 C   0  0  0  0  0  0  0  0  0
   -4.5635    1.2947    0.0000 C   0  0  0  0  0  0  0  0  0
   -3.7385    1.2947    0.0000 C   0  0  0  0  0  0  0  0  0
   -2.2711    2.0323    0.0000 C   0  0  0  0  0  0  0  0  0
  1  2  1  0  0  0  0
  2  3  4  0  0  0  0
  2  7  4  0  0  0  0
  3  4  4  0  0  0  0
  3 10  1  0  0  0  0
  4  5  4  0  0  0  0
  4  8  1  0  0  0  0
  5  6  4  0  0  0  0
  6  7  4  0  0  0  0
  8  9  1  0  0  0  0
  8 30  1  0  0  0  0
  9 10  1  0  0  0  0
  9 12  1  0  0  0  0
 10 11  2  0  0  0  0
 12 13  4  0  0  0  0
 12 29  4  0  0  0  0
 13 14  4  0  0  0  0
 14 15  1  0  0  0  0
 14 25  4  0  0  0  0
 15 16  1  0  0  0  0
 16 17  1  0  0  0  0
 17 18  1  0  0  0  0
 18 19  1  0  0  0  0
 18 23  1  0  0  0  0
 19 20  1  0  0  0  0
 20 21  1  0  0  0  0
 21 22  1  0  0  0  0
 21 24  1  0  0  0  0
 22 23  1  0  0  0  0
 25 26  1  0  0  0  0
 25 28  4  0  0  0  0
 26 27  1  0  0  0  0
 28 29  4  0  0  0  0
M  END
>  <Name_Molregno>
394942

>  <5-HT2A>
5.9

>  <5-HT2C>
8.9

$$$$
394949
  Marvin  02231216192D 0   1.00000     0.00000     0

 33 36  0  0  0  0  0  0  0  0999 V2000
    5.4195   -3.9545    0.0000 F   0  0  0  0  0  0  0  0  0
    5.4195   -3.1295    0.0000 C   0  0  0  0  0  0  0  0  0
    4.7051   -2.7170    0.0000 C   0  0  0  0  0  0  0  0  0
    4.7051   -1.8920    0.0000 C   0  0  0  0  0  0  0  0  0
    5.4195   -1.4795    0.0000 C   0  0  0  0  0  0  0  0  0
    6.1340   -1.8920    0.0000 C   0  0  0  0  0  0  0  0  0
    6.1340   -2.7170    0.0000 C   0  0  0  0  0  0  0  0  0
    5.4195   -0.6545    0.0000 C   0  0  0  0  0  0  0  0  0
    5.4195    0.1705    0.0000 F   0  0  0  0  0  0  0  0  0
    4.5945   -0.6545    0.0000 F   0  0  0  0  0  0  0  0  0
    6.2445   -0.6545    0.0000 F   0  0  0  0  0  0  0  0  0
    3.9204   -1.6371    0.0000 C   0  0  0  0  0  0  0  0  0
    3.6655   -0.8525    0.0000 O   0  0  0  0  0  0  0  0  0
    3.4355   -2.3045    0.0000 N   0  0  0  0  0  0  0  0  0
    3.9204   -2.9720    0.0000 C   0  0  0  0  0  0  0  0  0
    2.6105   -2.3045    0.0000 C   0  0  0  0  0  0  0  0  0
    2.1980   -3.0190    0.0000 C   0  0  0  0  0  0  0  0  0
    1.3730   -3.0190    0.0000 C   0  0  0  0  0  0  0  0  0
    0.9605   -3.7335    0.0000 O   0  0  0  0  0  0  0  0  0
    0.1355   -3.7335    0.0000 C   0  0  0  0  0  0  0  0  0
   -0.2770   -4.4479    0.0000 C   0  0  0  0  0  0  0  0  0
   -1.1020   -4.4479    0.0000 N   0  0  0  0  0  0  0  0  0
   -1.5145   -5.1624    0.0000 C   0  0  0  0  0  0  0  0  0
   -2.3395   -5.1624    0.0000 C   0  0  0  0  0  0  0  0  0
   -2.7520   -4.4479    0.0000 C   0  0  0  0  0  0  0  0  0
   -2.3395   -3.7335    0.0000 C   0  0  0  0  0  0  0  0  0
   -1.5145   -3.7335    0.0000 C   0  0  0  0  0  0  0  0  0
   -3.5770   -4.4479    0.0000 C   0  0  0  0  0  0  0  0  0
    0.9605   -2.3045    0.0000 C   0  0  0  0  0  0  0  0  0
    0.1355   -2.3045    0.0000 O   0  0  0  0  0  0  0  0  0
   -0.2770   -1.5901    0.0000 C   0  0  0  0  0  0  0  0  0
    1.3730   -1.5901    0.0000 C   0  0  0  0  0  0  0  0  0
    2.1980   -1.5901    0.0000 C   0  0  0  0  0  0  0  0  0
  1  2  1  0  0  0  0
  2  3  4  0  0  0  0
  2  7  4  0  0  0  0
  3  4  4  0  0  0  0
  3 15  1  0  0  0  0
  4  5  4  0  0  0  0
  4 12  1  0  0  0  0
  5  6  4  0  0  0  0
  5  8  1  0  0  0  0
  6  7  4  0  0  0  0
  8  9  1  0  0  0  0
  8 10  1  0  0  0  0
  8 11  1  0  0  0  0
 12 13  2  0  0  0  0
 12 14  1  0  0  0  0
 14 15  1  0  0  0  0
 14 16  1  0  0  0  0
 16 17  4  0  0  0  0
 16 33  4  0  0  0  0
 17 18  4  0  0  0  0
 18 19  1  0  0  0  0
 18 29  4  0  0  0  0
 19 20  1  0  0  0  0
 20 21  1  0  0  0  0
 21 22  1  0  0  0  0
 22 23  1  0  0  0  0
 22 27  1  0  0  0  0
 23 24  1  0  0  0  0
 24 25  1  0  0  0  0
 25 26  1  0  0  0  0
 25 28  1  0  0  0  0
 26 27  1  0  0  0  0
 29 30  1  0  0  0  0
 29 32  4  0  0  0  0
 30 31  1  0  0  0  0
 32 33  4  0  0  0  0
M  END
>  <Name_Molregno>
394949

>  <5-HT2A>
6

>  <5-HT2C>
8.2

$$$$
394950
  Marvin  02231216192D 0   1.00000     0.00000     0

 31 34  0  0  0  0  0  0  0  0999 V2000
   -0.5592   -1.2214    0.0000 Cl  0  0  0  0  0  0  0  0  0
   -0.5592   -0.3964    0.0000 C   0  0  0  0  0  0  0  0  0
   -1.2737    0.0161    0.0000 C   0  0  0  0  0  0  0  0  0
   -1.2737    0.8411    0.0000 C   0  0  0  0  0  0  0  0  0
   -2.0583    1.0960    0.0000 C   0  0  0  0  0  0  0  0  0
   -2.5432    0.4286    0.0000 N   0  0  0  0  0  0  0  0  0
   -2.0583   -0.2389    0.0000 C   0  0  0  0  0  0  0  0  0
   -2.3133   -1.0235    0.0000 O   0  0  0  0  0  0  0  0  0
   -3.3682    0.4286    0.0000 C   0  0  0  0  0  0  0  0  0
   -3.7807   -0.2859    0.0000 C   0  0  0  0  0  0  0  0  0
   -4.6057   -0.2859    0.0000 C   0  0  0  0  0  0  0  0  0
   -5.0182   -1.0004    0.0000 O   0  0  0  0  0  0  0  0  0
   -5.8432   -1.0004    0.0000 C   0  0  0  0  0  0  0  0  0
   -6.2557   -1.7148    0.0000 C   0  0  0  0  0  0  0  0  0
   -7.0807   -1.7148    0.0000 N   0  0  0  0  0  0  0  0  0
   -7.4932   -2.4293    0.0000 C   0  0  0  0  0  0  0  0  0
   -8.3182   -2.4293    0.0000 C   0  0  0  0  0  0  0  0  0
   -8.7307   -1.7148    0.0000 C   0  0  0  0  0  0  0  0  0
   -8.3182   -1.0004    0.0000 C   0  0  0  0  0  0  0  0  0
   -7.4932   -1.0004    0.0000 C   0  0  0  0  0  0  0  0  0
   -9.5557   -1.7148    0.0000 C   0  0  0  0  0  0  0  0  0
   -5.0182    0.4286    0.0000 C   0  0  0  0  0  0  0  0  0
   -5.8432    0.4286    0.0000 O   0  0  0  0  0  0  0  0  0
   -6.2557    1.1430    0.0000 C   0  0  0  0  0  0  0  0  0
   -4.6057    1.1430    0.0000 C   0  0  0  0  0  0  0  0  0
   -3.7807    1.1430    0.0000 C   0  0  0  0  0  0  0  0  0
   -0.5592    1.2536    0.0000 C   0  0  0  0  0  0  0  0  0
   -0.5592    2.0786    0.0000 F   0  0  0  0  0  0  0  0  0
    0.1553    0.8411    0.0000 C   0  0  0  0  0  0  0  0  0
    0.8697    1.2536    0.0000 F   0  0  0  0  0  0  0  0  0
    0.1553    0.0161    0.0000 C   0  0  0  0  0  0  0  0  0
  1  2  1  0  0  0  0
  2  3  4  0  0  0  0
  2 31  4  0  0  0  0
  3  4  4  0  0  0  0
  3  7  1  0  0  0  0
  4  5  1  0  0  0  0
  4 27  4  0  0  0  0
  5  6  1  0  0  0  0
  6  7  1  0  0  0  0
  6  9  1  0  0  0  0
  7  8  2  0  0  0  0
  9 10  4  0  0  0  0
  9 26  4  0  0  0  0
 10 11  4  0  0  0  0
 11 12  1  0  0  0  0
 11 22  4  0  0  0  0
 12 13  1  0  0  0  0
 13 14  1  0  0  0  0
 14 15  1  0  0  0  0
 15 16  1  0  0  0  0
 15 20  1  0  0  0  0
 16 17  1  0  0  0  0
 17 18  1  0  0  0  0
 18 19  1  0  0  0  0
 18 21  1  0  0  0  0
 19 20  1  0  0  0  0
 22 23  1  0  0  0  0
 22 25  4  0  0  0  0
 23 24  1  0  0  0  0
 25 26  4  0  0  0  0
 27 28  1  0  0  0  0
 27 29  4  0  0  0  0
 29 30  1  0  0  0  0
 29 31  4  0  0  0  0
M  END
>  <Name_Molregno>
394950

>  <5-HT2A>
6.3

>  <5-HT2C>
8.7

$$$$
394951
  Marvin  02231216192D 0   1.00000     0.00000     0

 30 33  0  0  0  0  0  0  0  0999 V2000
    9.9362   -0.1858    0.0000 Cl  0  0  0  0  0  0  0  0  0
    9.2218    0.2267    0.0000 C   0  0  0  0  0  0  0  0  0
    8.5073   -0.1858    0.0000 C   0  0  0  0  0  0  0  0  0
    7.7928    0.2267    0.0000 C   0  0  0  0  0  0  0  0  0
    7.7928    1.0517    0.0000 C   0  0  0  0  0  0  0  0  0
    8.5073    1.4642    0.0000 C   0  0  0  0  0  0  0  0  0
    9.2218    1.0517    0.0000 C   0  0  0  0  0  0  0  0  0
    9.9362    1.4642    0.0000 Cl  0  0  0  0  0  0  0  0  0
    7.0082    1.3067    0.0000 C   0  0  0  0  0  0  0  0  0
    6.5233    0.6392    0.0000 N   0  0  0  0  0  0  0  0  0
    7.0082   -0.0282    0.0000 C   0  0  0  0  0  0  0  0  0
    6.7533   -0.8128    0.0000 O   0  0  0  0  0  0  0  0  0
    5.6983    0.6392    0.0000 C   0  0  0  0  0  0  0  0  0
    5.2858   -0.0753    0.0000 C   0  0  0  0  0  0  0  0  0
    4.4608   -0.0753    0.0000 C   0  0  0  0  0  0  0  0  0
    4.0483   -0.7897    0.0000 O   0  0  0  0  0  0  0  0  0
    3.2233   -0.7897    0.0000 C   0  0  0  0  0  0  0  0  0
    2.8108   -1.5042    0.0000 C   0  0  0  0  0  0  0  0  0
    1.9858   -1.5042    0.0000 N   0  0  0  0  0  0  0  0  0
    1.5733   -2.2187    0.0000 C   0  0  0  0  0  0  0  0  0
    0.7483   -2.2187    0.0000 C   0  0  0  0  0  0  0  0  0
    0.3358   -1.5042    0.0000 C   0  0  0  0  0  0  0  0  0
    0.7483   -0.7897    0.0000 C   0  0  0  0  0  0  0  0  0
    1.5733   -0.7897    0.0000 C   0  0  0  0  0  0  0  0  0
   -0.4892   -1.5042    0.0000 C   0  0  0  0  0  0  0  0  0
    4.0483    0.6392    0.0000 C   0  0  0  0  0  0  0  0  0
    3.2233    0.6392    0.0000 O   0  0  0  0  0  0  0  0  0
    2.8108    1.3537    0.0000 C   0  0  0  0  0  0  0  0  0
    4.4608    1.3537    0.0000 C   0  0  0  0  0  0  0  0  0
    5.2858    1.3537    0.0000 C   0  0  0  0  0  0  0  0  0
  1  2  1  0  0  0  0
  2  3  4  0  0  0  0
  2  7  4  0  0  0  0
  3  4  4  0  0  0  0
  4  5  4  0  0  0  0
  4 11  1  0  0  0  0
  5  6  4  0  0  0  0
  5  9  1  0  0  0  0
  6  7  4  0  0  0  0
  7  8  1  0  0  0  0
  9 10  1  0  0  0  0
 10 11  1  0  0  0  0
 10 13  1  0  0  0  0
 11 12  2  0  0  0  0
 13 14  4  0  0  0  0
 13 30  4  0  0  0  0
 14 15  4  0  0  0  0
 15 16  1  0  0  0  0
 15 26  4  0  0  0  0
 16 17  1  0  0  0  0
 17 18  1  0  0  0  0
 18 19  1  0  0  0  0
 19 20  1  0  0  0  0
 19 24  1  0  0  0  0
 20 21  1  0  0  0  0
 21 22  1  0  0  0  0
 22 23  1  0  0  0  0
 22 25  1  0  0  0  0
 23 24  1  0  0  0  0
 26 27  1  0  0  0  0
 26 29  4  0  0  0  0
 27 28  1  0  0  0  0
 29 30  4  0  0  0  0
M  END
>  <Name_Molregno>
394951

>  <5-HT2A>
6.3

>  <5-HT2C>
8.3

$$$$
394953
  Marvin  02231216192D 0   1.00000     0.00000     0

 30 33  0  0  0  0  0  0  0  0999 V2000
   -0.5247   -1.0376    0.0000 Cl  0  0  0  0  0  0  0  0  0
   -0.5247   -0.2126    0.0000 C   0  0  0  0  0  0  0  0  0
   -1.2392    0.1999    0.0000 C   0  0  0  0  0  0  0  0  0
   -1.2392    1.0249    0.0000 C   0  0  0  0  0  0  0  0  0
   -0.5247    1.4374    0.0000 C   0  0  0  0  0  0  0  0  0
    0.1898    1.0249    0.0000 C   0  0  0  0  0  0  0  0  0
    0.9043    1.4374    0.0000 Cl  0  0  0  0  0  0  0  0  0
    0.1898    0.1999    0.0000 C   0  0  0  0  0  0  0  0  0
   -2.0238    1.2798    0.0000 C   0  0  0  0  0  0  0  0  0
   -2.5087    0.6124    0.0000 N   0  0  0  0  0  0  0  0  0
   -2.0238   -0.0550    0.0000 C   0  0  0  0  0  0  0  0  0
   -2.2787   -0.8397    0.0000 O   0  0  0  0  0  0  0  0  0
   -3.3337    0.6124    0.0000 C   0  0  0  0  0  0  0  0  0
   -3.7462   -0.1021    0.0000 C   0  0  0  0  0  0  0  0  0
   -4.5712   -0.1021    0.0000 C   0  0  0  0  0  0  0  0  0
   -4.9837   -0.8165    0.0000 O   0  0  0  0  0  0  0  0  0
   -5.8087   -0.8165    0.0000 C   0  0  0  0  0  0  0  0  0
   -6.2212   -1.5310    0.0000 C   0  0  0  0  0  0  0  0  0
   -7.0462   -1.5310    0.0000 N   0  0  0  0  0  0  0  0  0
   -7.4587   -2.2455    0.0000 C   0  0  0  0  0  0  0  0  0
   -8.2837   -2.2455    0.0000 C   0  0  0  0  0  0  0  0  0
   -8.6962   -1.5310    0.0000 C   0  0  0  0  0  0  0  0  0
   -8.2837   -0.8165    0.0000 C   0  0  0  0  0  0  0  0  0
   -7.4587   -0.8165    0.0000 C   0  0  0  0  0  0  0  0  0
   -9.5212   -1.5310    0.0000 C   0  0  0  0  0  0  0  0  0
   -4.9837    0.6124    0.0000 C   0  0  0  0  0  0  0  0  0
   -5.8087    0.6124    0.0000 O   0  0  0  0  0  0  0  0  0
   -6.2212    1.3269    0.0000 C   0  0  0  0  0  0  0  0  0
   -4.5712    1.3269    0.0000 C   0  0  0  0  0  0  0  0  0
   -3.7462    1.3269    0.0000 C   0  0  0  0  0  0  0  0  0
  1  2  1  0  0  0  0
  2  3  4  0  0  0  0
  2  8  4  0  0  0  0
  3  4  4  0  0  0  0
  3 11  1  0  0  0  0
  4  5  4  0  0  0  0
  4  9  1  0  0  0  0
  5  6  4  0  0  0  0
  6  7  1  0  0  0  0
  6  8  4  0  0  0  0
  9 10  1  0  0  0  0
 10 11  1  0  0  0  0
 10 13  1  0  0  0  0
 11 12  2  0  0  0  0
 13 14  4  0  0  0  0
 13 30  4  0  0  0  0
 14 15  4  0  0  0  0
 15 16  1  0  0  0  0
 15 26  4  0  0  0  0
 16 17  1  0  0  0  0
 17 18  1  0  0  0  0
 18 19  1  0  0  0  0
 19 20  1  0  0  0  0
 19 24  1  0  0  0  0
 20 21  1  0  0  0  0
 21 22  1  0  0  0  0
 22 23  1  0  0  0  0
 22 25  1  0  0  0  0
 23 24  1  0  0  0  0
 26 27  1  0  0  0  0
 26 29  4  0  0  0  0
 27 28  1  0  0  0  0
 29 30  4  0  0  0  0
M  END
>  <Name_Molregno>
394953

>  <5-HT2A>
6.4

>  <5-HT2C>
8.8

$$$$
394955
  Marvin  02231216192D 0   1.00000     0.00000     0

 30 33  0  0  0  0  0  0  0  0999 V2000
   -0.4970   -0.9676    0.0000 Cl  0  0  0  0  0  0  0  0  0
   -0.4970   -0.1426    0.0000 C   0  0  0  0  0  0  0  0  0
   -1.2115    0.2699    0.0000 C   0  0  0  0  0  0  0  0  0
   -1.2115    1.0949    0.0000 C   0  0  0  0  0  0  0  0  0
   -1.9961    1.3499    0.0000 C   0  0  0  0  0  0  0  0  0
   -2.4810    0.6824    0.0000 N   0  0  0  0  0  0  0  0  0
   -1.9961    0.0150    0.0000 C   0  0  0  0  0  0  0  0  0
   -2.2510   -0.7696    0.0000 O   0  0  0  0  0  0  0  0  0
   -3.3060    0.6824    0.0000 C   0  0  0  0  0  0  0  0  0
   -3.7185   -0.0320    0.0000 C   0  0  0  0  0  0  0  0  0
   -4.5435   -0.0320    0.0000 C   0  0  0  0  0  0  0  0  0
   -4.9560   -0.7465    0.0000 O   0  0  0  0  0  0  0  0  0
   -5.7810   -0.7465    0.0000 C   0  0  0  0  0  0  0  0  0
   -6.1935   -1.4610    0.0000 C   0  0  0  0  0  0  0  0  0
   -7.0185   -1.4610    0.0000 N   0  0  0  0  0  0  0  0  0
   -7.4310   -2.1755    0.0000 C   0  0  0  0  0  0  0  0  0
   -8.2560   -2.1755    0.0000 C   0  0  0  0  0  0  0  0  0
   -8.6685   -1.4610    0.0000 C   0  0  0  0  0  0  0  0  0
   -8.2560   -0.7465    0.0000 C   0  0  0  0  0  0  0  0  0
   -7.4310   -0.7465    0.0000 C   0  0  0  0  0  0  0  0  0
   -9.4935   -1.4610    0.0000 C   0  0  0  0  0  0  0  0  0
   -4.9560    0.6824    0.0000 C   0  0  0  0  0  0  0  0  0
   -5.7810    0.6824    0.0000 O   0  0  0  0  0  0  0  0  0
   -6.1935    1.3969    0.0000 C   0  0  0  0  0  0  0  0  0
   -4.5435    1.3969    0.0000 C   0  0  0  0  0  0  0  0  0
   -3.7185    1.3969    0.0000 C   0  0  0  0  0  0  0  0  0
   -0.4970    1.5074    0.0000 C   0  0  0  0  0  0  0  0  0
    0.2175    1.0949    0.0000 C   0  0  0  0  0  0  0  0  0
    0.2175    0.2699    0.0000 C   0  0  0  0  0  0  0  0  0
    0.9320   -0.1426    0.0000 Cl  0  0  0  0  0  0  0  0  0
  1  2  1  0  0  0  0
  2  3  4  0  0  0  0
  2 29  4  0  0  0  0
  3  4  4  0  0  0  0
  3  7  1  0  0  0  0
  4  5  1  0  0  0  0
  4 27  4  0  0  0  0
  5  6  1  0  0  0  0
  6  7  1  0  0  0  0
  6  9  1  0  0  0  0
  7  8  2  0  0  0  0
  9 10  4  0  0  0  0
  9 26  4  0  0  0  0
 10 11  4  0  0  0  0
 11 12  1  0  0  0  0
 11 22  4  0  0  0  0
 12 13  1  0  0  0  0
 13 14  1  0  0  0  0
 14 15  1  0  0  0  0
 15 16  1  0  0  0  0
 15 20  1  0  0  0  0
 16 17  1  0  0  0  0
 17 18  1  0  0  0  0
 18 19  1  0  0  0  0
 18 21  1  0  0  0  0
 19 20  1  0  0  0  0
 22 23  1  0  0  0  0
 22 25  4  0  0  0  0
 23 24  1  0  0  0  0
 25 26  4  0  0  0  0
 27 28  4  0  0  0  0
 28 29  4  0  0  0  0
 29 30  1  0  0  0  0
M  END
>  <Name_Molregno>
394955

>  <5-HT2A>
6.3

>  <5-HT2C>
9

$$$$
394957
  Marvin  02231216192D 0   1.00000     0.00000     0

 31 34  0  0  0  0  0  0  0  0999 V2000
    9.5369    1.1411    0.0000 Cl  0  0  0  0  0  0  0  0  0
    8.8225    1.5536    0.0000 C   0  0  0  0  0  0  0  0  0
    8.1080    1.1411    0.0000 C   0  0  0  0  0  0  0  0  0
    7.3935    1.5536    0.0000 C   0  0  0  0  0  0  0  0  0
    7.3935    2.3786    0.0000 C   0  0  0  0  0  0  0  0  0
    8.1080    2.7911    0.0000 C   0  0  0  0  0  0  0  0  0
    8.8225    2.3786    0.0000 C   0  0  0  0  0  0  0  0  0
    9.5369    2.7911    0.0000 Cl  0  0  0  0  0  0  0  0  0
    6.6089    2.6335    0.0000 C   0  0  0  0  0  0  0  0  0
    6.1240    1.9661    0.0000 N   0  0  0  0  0  0  0  0  0
    6.6089    1.2987    0.0000 C   0  0  0  0  0  0  0  0  0
    6.3540    0.5140    0.0000 O   0  0  0  0  0  0  0  0  0
    5.2990    1.9661    0.0000 C   0  0  0  0  0  0  0  0  0
    4.8865    1.2516    0.0000 C   0  0  0  0  0  0  0  0  0
    4.0615    1.2516    0.0000 C   0  0  0  0  0  0  0  0  0
    3.6490    0.5372    0.0000 O   0  0  0  0  0  0  0  0  0
    2.8240    0.5372    0.0000 C   0  0  0  0  0  0  0  0  0
    2.4115   -0.1773    0.0000 C   0  0  0  0  0  0  0  0  0
    1.5865   -0.1773    0.0000 N   0  0  0  0  0  0  0  0  0
    1.1740   -0.8918    0.0000 C   0  0  0  0  0  0  0  0  0
    0.3490   -0.8918    0.0000 C   0  0  0  0  0  0  0  0  0
   -0.0635   -0.1773    0.0000 C   0  0  0  0  0  0  0  0  0
    0.3490    0.5372    0.0000 C   0  0  0  0  0  0  0  0  0
    1.1740    0.5372    0.0000 C   0  0  0  0  0  0  0  0  0
   -0.8885   -0.1773    0.0000 C   0  0  0  0  0  0  0  0  0
    3.6490    1.9661    0.0000 C   0  0  0  0  0  0  0  0  0
    2.8240    1.9661    0.0000 O   0  0  0  0  0  0  0  0  0
    2.4115    2.6806    0.0000 C   0  0  0  0  0  0  0  0  0
    4.0615    2.6806    0.0000 C   0  0  0  0  0  0  0  0  0
    4.8865    2.6806    0.0000 C   0  0  0  0  0  0  0  0  0
    8.1080    0.3161    0.0000 C   0  0  0  0  0  0  0  0  0
  1  2  1  0  0  0  0
  2  3  4  0  0  0  0
  2  7  4  0  0  0  0
  3  4  4  0  0  0  0
  3 31  1  0  0  0  0
  4  5  4  0  0  0  0
  4 11  1  0  0  0  0
  5  6  4  0  0  0  0
  5  9  1  0  0  0  0
  6  7  4  0  0  0  0
  7  8  1  0  0  0  0
  9 10  1  0  0  0  0
 10 11  1  0  0  0  0
 10 13  1  0  0  0  0
 11 12  2  0  0  0  0
 13 14  4  0  0  0  0
 13 30  4  0  0  0  0
 14 15  4  0  0  0  0
 15 16  1  0  0  0  0
 15 26  4  0  0  0  0
 16 17  1  0  0  0  0
 17 18  1  0  0  0  0
 18 19  1  0  0  0  0
 19 20  1  0  0  0  0
 19 24  1  0  0  0  0
 20 21  1  0  0  0  0
 21 22  1  0  0  0  0
 22 23  1  0  0  0  0
 22 25  1  0  0  0  0
 23 24  1  0  0  0  0
 26 27  1  0  0  0  0
 26 29  4  0  0  0  0
 27 28  1  0  0  0  0
 29 30  4  0  0  0  0
M  END
>  <Name_Molregno>
394957

>  <5-HT2A>
6.4

>  <5-HT2C>
8.6

$$$$
394959
  Marvin  02231216192D 0   1.00000     0.00000     0

 31 34  0  0  0  0  0  0  0  0999 V2000
   -0.5281   -1.0811    0.0000 Cl  0  0  0  0  0  0  0  0  0
   -0.5281   -0.2561    0.0000 C   0  0  0  0  0  0  0  0  0
   -1.2426    0.1564    0.0000 C   0  0  0  0  0  0  0  0  0
   -1.2426    0.9814    0.0000 C   0  0  0  0  0  0  0  0  0
   -0.5281    1.3939    0.0000 C   0  0  0  0  0  0  0  0  0
    0.1864    0.9814    0.0000 C   0  0  0  0  0  0  0  0  0
    0.9008    1.3939    0.0000 Cl  0  0  0  0  0  0  0  0  0
    0.1864    0.1564    0.0000 C   0  0  0  0  0  0  0  0  0
    0.9008   -0.2561    0.0000 C   0  0  0  0  0  0  0  0  0
   -2.0272    1.2363    0.0000 C   0  0  0  0  0  0  0  0  0
   -2.5121    0.5689    0.0000 N   0  0  0  0  0  0  0  0  0
   -2.0272   -0.0985    0.0000 C   0  0  0  0  0  0  0  0  0
   -2.2822   -0.8832    0.0000 O   0  0  0  0  0  0  0  0  0
   -3.3371    0.5689    0.0000 C   0  0  0  0  0  0  0  0  0
   -3.7496   -0.1456    0.0000 C   0  0  0  0  0  0  0  0  0
   -4.5746   -0.1456    0.0000 C   0  0  0  0  0  0  0  0  0
   -4.9871   -0.8601    0.0000 O   0  0  0  0  0  0  0  0  0
   -5.8121   -0.8601    0.0000 C   0  0  0  0  0  0  0  0  0
   -6.2246   -1.5745    0.0000 C   0  0  0  0  0  0  0  0  0
   -7.0496   -1.5745    0.0000 N   0  0  0  0  0  0  0  0  0
   -7.4621   -2.2890    0.0000 C   0  0  0  0  0  0  0  0  0
   -8.2871   -2.2890    0.0000 C   0  0  0  0  0  0  0  0  0
   -8.6996   -1.5745    0.0000 C   0  0  0  0  0  0  0  0  0
   -8.2871   -0.8601    0.0000 C   0  0  0  0  0  0  0  0  0
   -7.4621   -0.8601    0.0000 C   0  0  0  0  0  0  0  0  0
   -9.5246   -1.5745    0.0000 C   0  0  0  0  0  0  0  0  0
   -4.9871    0.5689    0.0000 C   0  0  0  0  0  0  0  0  0
   -5.8121    0.5689    0.0000 O   0  0  0  0  0  0  0  0  0
   -6.2246    1.2834    0.0000 C   0  0  0  0  0  0  0  0  0
   -4.5746    1.2834    0.0000 C   0  0  0  0  0  0  0  0  0
   -3.7496    1.2834    0.0000 C   0  0  0  0  0  0  0  0  0
  1  2  1  0  0  0  0
  2  3  4  0  0  0  0
  2  8  4  0  0  0  0
  3  4  4  0  0  0  0
  3 12  1  0  0  0  0
  4  5  4  0  0  0  0
  4 10  1  0  0  0  0
  5  6  4  0  0  0  0
  6  7  1  0  0  0  0
  6  8  4  0  0  0  0
  8  9  1  0  0  0  0
 10 11  1  0  0  0  0
 11 12  1  0  0  0  0
 11 14  1  0  0  0  0
 12 13  2  0  0  0  0
 14 15  4  0  0  0  0
 14 31  4  0  0  0  0
 15 16  4  0  0  0  0
 16 17  1  0  0  0  0
 16 27  4  0  0  0  0
 17 18  1  0  0  0  0
 18 19  1  0  0  0  0
 19 20  1  0  0  0  0
 20 21  1  0  0  0  0
 20 25  1  0  0  0  0
 21 22  1  0  0  0  0
 22 23  1  0  0  0  0
 23 24  1  0  0  0  0
 23 26  1  0  0  0  0
 24 25  1  0  0  0  0
 27 28  1  0  0  0  0
 27 30  4  0  0  0  0
 28 29  1  0  0  0  0
 30 31  4  0  0  0  0
M  END
>  <Name_Molregno>
394959

>  <5-HT2A>
6.2

>  <5-HT2C>
8.9

$$$$
394961
  Marvin  02231216192D 0   1.00000     0.00000     0

 33 36  0  0  0  0  0  0  0  0999 V2000
    9.1952    1.1564    0.0000 F   0  0  0  0  0  0  0  0  0
    8.4807    0.7439    0.0000 C   0  0  0  0  0  0  0  0  0
    8.4807   -0.0811    0.0000 C   0  0  0  0  0  0  0  0  0
    7.7663   -0.4936    0.0000 C   0  0  0  0  0  0  0  0  0
    7.0518   -0.0811    0.0000 C   0  0  0  0  0  0  0  0  0
    7.0518    0.7439    0.0000 C   0  0  0  0  0  0  0  0  0
    7.7663    1.1564    0.0000 C   0  0  0  0  0  0  0  0  0
    6.2672    0.9988    0.0000 C   0  0  0  0  0  0  0  0  0
    5.7822    0.3314    0.0000 N   0  0  0  0  0  0  0  0  0
    6.2672   -0.3360    0.0000 C   0  0  0  0  0  0  0  0  0
    6.0122   -1.1207    0.0000 O   0  0  0  0  0  0  0  0  0
    4.9572    0.3314    0.0000 C   0  0  0  0  0  0  0  0  0
    4.5447   -0.3831    0.0000 C   0  0  0  0  0  0  0  0  0
    3.7197   -0.3831    0.0000 C   0  0  0  0  0  0  0  0  0
    3.3072   -1.0975    0.0000 O   0  0  0  0  0  0  0  0  0
    2.4822   -1.0975    0.0000 C   0  0  0  0  0  0  0  0  0
    2.0697   -1.8120    0.0000 C   0  0  0  0  0  0  0  0  0
    1.2447   -1.8120    0.0000 N   0  0  0  0  0  0  0  0  0
    0.8322   -2.5265    0.0000 C   0  0  0  0  0  0  0  0  0
    0.0072   -2.5265    0.0000 C   0  0  0  0  0  0  0  0  0
   -0.4053   -1.8120    0.0000 C   0  0  0  0  0  0  0  0  0
    0.0072   -1.0975    0.0000 C   0  0  0  0  0  0  0  0  0
    0.8322   -1.0975    0.0000 C   0  0  0  0  0  0  0  0  0
   -1.2303   -1.8120    0.0000 C   0  0  0  0  0  0  0  0  0
    3.3072    0.3314    0.0000 C   0  0  0  0  0  0  0  0  0
    2.4822    0.3314    0.0000 O   0  0  0  0  0  0  0  0  0
    2.0697    1.0459    0.0000 C   0  0  0  0  0  0  0  0  0
    3.7197    1.0459    0.0000 C   0  0  0  0  0  0  0  0  0
    4.5447    1.0459    0.0000 C   0  0  0  0  0  0  0  0  0
    7.7663   -1.3186    0.0000 C   0  0  0  0  0  0  0  0  0
    7.7663   -2.1436    0.0000 F   0  0  0  0  0  0  0  0  0
    6.9413   -1.3186    0.0000 F   0  0  0  0  0  0  0  0  0
    8.5913   -1.3186    0.0000 F   0  0  0  0  0  0  0  0  0
  1  2  1  0  0  0  0
  2  3  4  0  0  0  0
  2  7  4  0  0  0  0
  3  4  4  0  0  0  0
  4  5  4  0  0  0  0
  4 30  1  0  0  0  0
  5  6  4  0  0  0  0
  5 10  1  0  0  0  0
  6  7  4  0  0  0  0
  6  8  1  0  0  0  0
  8  9  1  0  0  0  0
  9 10  1  0  0  0  0
  9 12  1  0  0  0  0
 10 11  2  0  0  0  0
 12 13  4  0  0  0  0
 12 29  4  0  0  0  0
 13 14  4  0  0  0  0
 14 15  1  0  0  0  0
 14 25  4  0  0  0  0
 15 16  1  0  0  0  0
 16 17  1  0  0  0  0
 17 18  1  0  0  0  0
 18 19  1  0  0  0  0
 18 23  1  0  0  0  0
 19 20  1  0  0  0  0
 20 21  1  0  0  0  0
 21 22  1  0  0  0  0
 21 24  1  0  0  0  0
 22 23  1  0  0  0  0
 25 26  1  0  0  0  0
 25 28  4  0  0  0  0
 26 27  1  0  0  0  0
 28 29  4  0  0  0  0
 30 31  1  0  0  0  0
 30 32  1  0  0  0  0
 30 33  1  0  0  0  0
M  END
>  <Name_Molregno>
394961

>  <5-HT2A>
6.6

>  <5-HT2C>
9.4

$$$$
394963
  Marvin  02231216192D 0   1.00000     0.00000     0

 30 33  0  0  0  0  0  0  0  0999 V2000
   -1.7941    1.5423    0.0000 O   0  0  0  0  0  0  0  0  0
   -2.6191    1.5423    0.0000 C   0  0  0  0  0  0  0  0  0
   -3.0316    2.2568    0.0000 C   0  0  0  0  0  0  0  0  0
   -3.8566    2.2568    0.0000 N   0  0  0  0  0  0  0  0  0
   -4.2691    1.5423    0.0000 C   0  0  0  0  0  0  0  0  0
   -5.0941    1.5423    0.0000 C   0  0  0  0  0  0  0  0  0
   -5.5066    2.2568    0.0000 C   0  0  0  0  0  0  0  0  0
   -5.0941    2.9712    0.0000 C   0  0  0  0  0  0  0  0  0
   -4.2691    2.9712    0.0000 C   0  0  0  0  0  0  0  0  0
   -6.3316    2.2568    0.0000 C   0  0  0  0  0  0  0  0  0
   -1.3816    0.8278    0.0000 C   0  0  0  0  0  0  0  0  0
   -0.5566    0.8278    0.0000 C   0  0  0  0  0  0  0  0  0
   -0.1441    0.1133    0.0000 C   0  0  0  0  0  0  0  0  0
    0.6809    0.1133    0.0000 N   0  0  0  0  0  0  0  0  0
    1.1658   -0.5541    0.0000 C   0  0  0  0  0  0  0  0  0
    1.9504   -0.2992    0.0000 C   0  0  0  0  0  0  0  0  0
    1.9504    0.5258    0.0000 C   0  0  0  0  0  0  0  0  0
    2.6649    0.9383    0.0000 C   0  0  0  0  0  0  0  0  0
    3.3794    0.5258    0.0000 C   0  0  0  0  0  0  0  0  0
    3.3794   -0.2992    0.0000 C   0  0  0  0  0  0  0  0  0
    2.6649   -0.7117    0.0000 C   0  0  0  0  0  0  0  0  0
    4.0938   -0.7117    0.0000 C   0  0  0  0  0  0  0  0  0
    2.6649    1.7633    0.0000 C   0  0  0  0  0  0  0  0  0
    1.1658    0.7808    0.0000 C   0  0  0  0  0  0  0  0  0
    0.9109    1.5654    0.0000 O   0  0  0  0  0  0  0  0  0
   -0.5566   -0.6011    0.0000 C   0  0  0  0  0  0  0  0  0
   -1.3816   -0.6011    0.0000 C   0  0  0  0  0  0  0  0  0
   -1.7941    0.1133    0.0000 C   0  0  0  0  0  0  0  0  0
   -2.6191    0.1133    0.0000 O   0  0  0  0  0  0  0  0  0
   -3.0316   -0.6011    0.0000 C   0  0  0  0  0  0  0  0  0
  1  2  1  0  0  0  0
  1 11  1  0  0  0  0
  2  3  1  0  0  0  0
  3  4  1  0  0  0  0
  4  5  1  0  0  0  0
  4  9  1  0  0  0  0
  5  6  1  0  0  0  0
  6  7  1  0  0  0  0
  7  8  1  0  0  0  0
  7 10  1  0  0  0  0
  8  9  1  0  0  0  0
 11 12  4  0  0  0  0
 11 28  4  0  0  0  0
 12 13  4  0  0  0  0
 13 14  1  0  0  0  0
 13 26  4  0  0  0  0
 14 15  1  0  0  0  0
 14 24  1  0  0  0  0
 15 16  1  0  0  0  0
 16 17  4  0  0  0  0
 16 21  4  0  0  0  0
 17 18  4  0  0  0  0
 17 24  1  0  0  0  0
 18 19  4  0  0  0  0
 18 23  1  0  0  0  0
 19 20  4  0  0  0  0
 20 21  4  0  0  0  0
 20 22  1  0  0  0  0
 24 25  2  0  0  0  0
 26 27  4  0  0  0  0
 27 28  4  0  0  0  0
 28 29  1  0  0  0  0
 29 30  1  0  0  0  0
M  END
>  <Name_Molregno>
394963

>  <5-HT2A>
5.9

>  <5-HT2C>
8.5

$$$$
394967
  Marvin  02231216192D 0   1.00000     0.00000     0

 30 33  0  0  0  0  0  0  0  0999 V2000
   -1.7941    1.5423    0.0000 O   0  0  0  0  0  0  0  0  0
   -2.6191    1.5423    0.0000 C   0  0  0  0  0  0  0  0  0
   -3.0316    2.2568    0.0000 C   0  0  0  0  0  0  0  0  0
   -3.8566    2.2568    0.0000 N   0  0  0  0  0  0  0  0  0
   -4.2691    1.5423    0.0000 C   0  0  0  0  0  0  0  0  0
   -5.0941    1.5423    0.0000 C   0  0  0  0  0  0  0  0  0
   -5.5066    2.2568    0.0000 C   0  0  0  0  0  0  0  0  0
   -5.0941    2.9712    0.0000 C   0  0  0  0  0  0  0  0  0
   -4.2691    2.9712    0.0000 C   0  0  0  0  0  0  0  0  0
   -6.3316    2.2568    0.0000 C   0  0  0  0  0  0  0  0  0
   -1.3816    0.8278    0.0000 C   0  0  0  0  0  0  0  0  0
   -0.5566    0.8278    0.0000 C   0  0  0  0  0  0  0  0  0
   -0.1441    0.1133    0.0000 C   0  0  0  0  0  0  0  0  0
    0.6809    0.1133    0.0000 N   0  0  0  0  0  0  0  0  0
    1.1658   -0.5541    0.0000 C   0  0  0  0  0  0  0  0  0
    1.9504   -0.2992    0.0000 C   0  0  0  0  0  0  0  0  0
    1.9504    0.5258    0.0000 C   0  0  0  0  0  0  0  0  0
    2.6649    0.9383    0.0000 C   0  0  0  0  0  0  0  0  0
    3.3794    0.5258    0.0000 C   0  0  0  0  0  0  0  0  0
    3.3794   -0.2992    0.0000 C   0  0  0  0  0  0  0  0  0
    2.6649   -0.7117    0.0000 C   0  0  0  0  0  0  0  0  0
    4.0938   -0.7117    0.0000 C   0  0  0  0  0  0  0  0  0
    2.6649    1.7633    0.0000 C   0  0  0  0  0  0  0  0  0
    1.1658    0.7808    0.0000 C   0  0  0  0  0  0  0  0  0
    0.9109    1.5654    0.0000 N   0  0  0  0  0  0  0  0  0
   -0.5566   -0.6011    0.0000 C   0  0  0  0  0  0  0  0  0
   -1.3816   -0.6011    0.0000 C   0  0  0  0  0  0  0  0  0
   -1.7941    0.1133    0.0000 C   0  0  0  0  0  0  0  0  0
   -2.6191    0.1133    0.0000 O   0  0  0  0  0  0  0  0  0
   -3.0316   -0.6011    0.0000 C   0  0  0  0  0  0  0  0  0
  1  2  1  0  0  0  0
  1 11  1  0  0  0  0
  2  3  1  0  0  0  0
  3  4  1  0  0  0  0
  4  5  1  0  0  0  0
  4  9  1  0  0  0  0
  5  6  1  0  0  0  0
  6  7  1  0  0  0  0
  7  8  1  0  0  0  0
  7 10  1  0  0  0  0
  8  9  1  0  0  0  0
 11 12  4  0  0  0  0
 11 28  4  0  0  0  0
 12 13  4  0  0  0  0
 13 14  1  0  0  0  0
 13 26  4  0  0  0  0
 14 15  1  0  0  0  0
 14 24  1  0  0  0  0
 15 16  1  0  0  0  0
 16 17  4  0  0  0  0
 16 21  4  0  0  0  0
 17 18  4  0  0  0  0
 17 24  1  0  0  0  0
 18 19  4  0  0  0  0
 18 23  1  0  0  0  0
 19 20  4  0  0  0  0
 20 21  4  0  0  0  0
 20 22  1  0  0  0  0
 24 25  2  0  0  0  0
 26 27  4  0  0  0  0
 27 28  4  0  0  0  0
 28 29  1  0  0  0  0
 29 30  1  0  0  0  0
M  END
>  <Name_Molregno>
394967

>  <5-HT2A>
5.4

>  <5-HT2C>
6.9

$$$$
394969
  Marvin  02231216192D 0   1.00000     0.00000     0

 30 33  0  0  1  0  0  0  0  0999 V2000
    7.6045   -1.0511    0.0000 Cl  0  0  0  0  0  0  0  0  0
    7.6045   -0.2261    0.0000 C   0  0  0  0  0  0  0  0  0
    6.8900    0.1864    0.0000 C   0  0  0  0  0  0  0  0  0
    6.8900    1.0114    0.0000 C   0  0  0  0  0  0  0  0  0
    7.6045    1.4239    0.0000 C   0  0  0  0  0  0  0  0  0
    8.3189    1.0114    0.0000 C   0  0  0  0  0  0  0  0  0
    9.0334    1.4239    0.0000 Cl  0  0  0  0  0  0  0  0  0
    8.3189    0.1864    0.0000 C   0  0  0  0  0  0  0  0  0
    6.1054    1.2663    0.0000 C   0  0  0  0  0  0  0  0  0
    5.6204    0.5989    0.0000 N   0  0  0  0  0  0  0  0  0
    6.1054   -0.0686    0.0000 C   0  0  0  0  0  0  0  0  0
    5.8504   -0.8532    0.0000 O   0  0  0  0  0  0  0  0  0
    4.7954    0.5989    0.0000 C   0  0  0  0  0  0  0  0  0
    4.3829   -0.1156    0.0000 C   0  0  0  0  0  0  0  0  0
    3.5579   -0.1156    0.0000 C   0  0  0  0  0  0  0  0  0
    3.1454   -0.8301    0.0000 O   0  0  0  0  0  0  0  0  0
    2.3204   -0.8301    0.0000 C   0  0  0  0  0  0  0  0  0
    1.9079   -1.5446    0.0000 C   0  0  0  0  0  0  0  0  0
    1.0829   -1.5446    0.0000 N   0  0  0  0  0  0  0  0  0
    0.6704   -2.2590    0.0000 C   0  0  0  0  0  0  0  0  0
   -0.1546   -2.2590    0.0000 C   0  0  0  0  0  0  0  0  0
   -0.5671   -1.5446    0.0000 C   0  0  0  0  0  0  0  0  0
   -0.1546   -0.8301    0.0000 C   0  0  0  0  0  0  0  0  0
    0.6704   -0.8301    0.0000 C   0  0  0  0  0  0  0  0  0
   -0.5671   -2.9735    0.0000 C   0  0  0  0  0  0  0  0  0
    3.1454    0.5989    0.0000 C   0  0  0  0  0  0  0  0  0
    2.3204    0.5989    0.0000 O   0  0  0  0  0  0  0  0  0
    1.9079    1.3133    0.0000 C   0  0  0  0  0  0  0  0  0
    3.5579    1.3133    0.0000 C   0  0  0  0  0  0  0  0  0
    4.3829    1.3133    0.0000 C   0  0  0  0  0  0  0  0  0
  1  2  1  0  0  0  0
  2  3  4  0  0  0  0
  2  8  4  0  0  0  0
  3  4  4  0  0  0  0
  3 11  1  0  0  0  0
  4  5  4  0  0  0  0
  4  9  1  0  0  0  0
  5  6  4  0  0  0  0
  6  7  1  0  0  0  0
  6  8  4  0  0  0  0
  9 10  1  0  0  0  0
 10 11  1  0  0  0  0
 10 13  1  0  0  0  0
 11 12  2  0  0  0  0
 13 14  4  0  0  0  0
 13 30  4  0  0  0  0
 14 15  4  0  0  0  0
 15 16  1  0  0  0  0
 15 26  4  0  0  0  0
 16 17  1  0  0  0  0
 17 18  1  0  0  0  0
 18 19  1  0  0  0  0
 19 20  1  0  0  0  0
 19 24  1  0  0  0  0
 20 21  1  0  0  0  0
 21 22  1  0  0  0  0
 21 25  1  0  0  0  0
 22 23  1  0  0  0  0
 23 24  1  0  0  0  0
 26 27  1  0  0  0  0
 26 29  4  0  0  0  0
 27 28  1  0  0  0  0
 29 30  4  0  0  0  0
M  END
>  <Name_Molregno>
394969

>  <5-HT2A>
5.9

>  <5-HT2C>
8.6

$$$$
394971
  Marvin  02231216192D 0   1.00000     0.00000     0

 30 33  0  0  1  0  0  0  0  0999 V2000
   -0.5610   -1.1754    0.0000 Cl  0  0  0  0  0  0  0  0  0
   -0.5610   -0.3504    0.0000 C   0  0  0  0  0  0  0  0  0
   -1.2755    0.0621    0.0000 C   0  0  0  0  0  0  0  0  0
   -1.2755    0.8871    0.0000 C   0  0  0  0  0  0  0  0  0
   -0.5610    1.2996    0.0000 C   0  0  0  0  0  0  0  0  0
    0.1534    0.8871    0.0000 C   0  0  0  0  0  0  0  0  0
    0.8679    1.2996    0.0000 Cl  0  0  0  0  0  0  0  0  0
    0.1534    0.0621    0.0000 C   0  0  0  0  0  0  0  0  0
   -2.0601    1.1420    0.0000 C   0  0  0  0  0  0  0  0  0
   -2.5451    0.4746    0.0000 N   0  0  0  0  0  0  0  0  0
   -2.0601   -0.1929    0.0000 C   0  0  0  0  0  0  0  0  0
   -2.3151   -0.9775    0.0000 O   0  0  0  0  0  0  0  0  0
   -3.3701    0.4746    0.0000 C   0  0  0  0  0  0  0  0  0
   -3.7826   -0.2399    0.0000 C   0  0  0  0  0  0  0  0  0
   -4.6076   -0.2399    0.0000 C   0  0  0  0  0  0  0  0  0
   -5.0201   -0.9544    0.0000 O   0  0  0  0  0  0  0  0  0
   -5.8451   -0.9544    0.0000 C   0  0  0  0  0  0  0  0  0
   -6.2576   -1.6689    0.0000 C   0  0  0  0  0  0  0  0  0
   -7.0826   -1.6689    0.0000 N   0  0  0  0  0  0  0  0  0
   -7.4951   -2.3833    0.0000 C   0  0  0  0  0  0  0  0  0
   -8.3201   -2.3833    0.0000 C   0  0  0  0  0  0  0  0  0
   -8.7326   -1.6689    0.0000 C   0  0  0  0  0  0  0  0  0
   -8.3201   -0.9544    0.0000 C   0  0  0  0  0  0  0  0  0
   -7.4951   -0.9544    0.0000 C   0  0  0  0  0  0  0  0  0
   -7.0826   -0.2399    0.0000 C   0  0  0  0  0  0  0  0  0
   -5.0201    0.4746    0.0000 C   0  0  0  0  0  0  0  0  0
   -5.8451    0.4746    0.0000 O   0  0  0  0  0  0  0  0  0
   -6.2576    1.1890    0.0000 C   0  0  0  0  0  0  0  0  0
   -4.6076    1.1890    0.0000 C   0  0  0  0  0  0  0  0  0
   -3.7826    1.1890    0.0000 C   0  0  0  0  0  0  0  0  0
  1  2  1  0  0  0  0
  2  3  4  0  0  0  0
  2  8  4  0  0  0  0
  3  4  4  0  0  0  0
  3 11  1  0  0  0  0
  4  5  4  0  0  0  0
  4  9  1  0  0  0  0
  5  6  4  0  0  0  0
  6  7  1  0  0  0  0
  6  8  4  0  0  0  0
  9 10  1  0  0  0  0
 10 11  1  0  0  0  0
 10 13  1  0  0  0  0
 11 12  2  0  0  0  0
 13 14  4  0  0  0  0
 13 30  4  0  0  0  0
 14 15  4  0  0  0  0
 15 16  1  0  0  0  0
 15 26  4  0  0  0  0
 16 17  1  0  0  0  0
 17 18  1  0  0  0  0
 18 19  1  0  0  0  0
 19 20  1  0  0  0  0
 19 24  1  0  0  0  0
 20 21  1  0  0  0  0
 21 22  1  0  0  0  0
 22 23  1  0  0  0  0
 23 24  1  0  0  0  0
 24 25  1  0  0  0  0
 26 27  1  0  0  0  0
 26 29  4  0  0  0  0
 27 28  1  0  0  0  0
 29 30  4  0  0  0  0
M  END
>  <Name_Molregno>
394971

>  <5-HT2A>
5.4

>  <5-HT2C>
8

$$$$
394973
  Marvin  02231216192D 0   1.00000     0.00000     0

 31 34  0  0  1  0  0  0  0  0999 V2000
    7.2225   -0.0633    0.0000 Cl  0  0  0  0  0  0  0  0  0
    7.2225    0.7617    0.0000 C   0  0  0  0  0  0  0  0  0
    6.5080    1.1742    0.0000 C   0  0  0  0  0  0  0  0  0
    6.5080    1.9992    0.0000 C   0  0  0  0  0  0  0  0  0
    7.2225    2.4117    0.0000 C   0  0  0  0  0  0  0  0  0
    7.9370    1.9992    0.0000 C   0  0  0  0  0  0  0  0  0
    8.6514    2.4117    0.0000 Cl  0  0  0  0  0  0  0  0  0
    7.9370    1.1742    0.0000 C   0  0  0  0  0  0  0  0  0
    5.7234    2.2541    0.0000 C   0  0  0  0  0  0  0  0  0
    5.2385    1.5867    0.0000 N   0  0  0  0  0  0  0  0  0
    5.7234    0.9192    0.0000 C   0  0  0  0  0  0  0  0  0
    5.4685    0.1346    0.0000 O   0  0  0  0  0  0  0  0  0
    4.4135    1.5867    0.0000 C   0  0  0  0  0  0  0  0  0
    4.0010    0.8722    0.0000 C   0  0  0  0  0  0  0  0  0
    3.1760    0.8722    0.0000 C   0  0  0  0  0  0  0  0  0
    2.7635    0.1577    0.0000 O   0  0  0  0  0  0  0  0  0
    1.9385    0.1577    0.0000 C   0  0  0  0  0  0  0  0  0
    1.5260   -0.5568    0.0000 C   0  0  0  0  0  0  0  0  0
    0.7010   -0.5568    0.0000 N   0  0  0  0  0  0  0  0  0
    0.2885   -1.2712    0.0000 C   0  0  0  0  0  0  0  0  0
   -0.5365   -1.2712    0.0000 C   0  0  0  0  0  0  0  0  0
   -0.9490   -0.5568    0.0000 C   0  0  0  0  0  0  0  0  0
   -0.5365    0.1577    0.0000 C   0  0  0  0  0  0  0  0  0
    0.2885    0.1577    0.0000 C   0  0  0  0  0  0  0  0  0
    0.7010    0.8722    0.0000 C   0  0  0  0  0  0  0  0  0
    0.7010   -1.9857    0.0000 C   0  0  0  0  0  0  0  0  0
    2.7635    1.5867    0.0000 C   0  0  0  0  0  0  0  0  0
    1.9385    1.5867    0.0000 O   0  0  0  0  0  0  0  0  0
    1.5260    2.3011    0.0000 C   0  0  0  0  0  0  0  0  0
    3.1760    2.3011    0.0000 C   0  0  0  0  0  0  0  0  0
    4.0010    2.3011    0.0000 C   0  0  0  0  0  0  0  0  0
  1  2  1  0  0  0  0
  2  3  4  0  0  0  0
  2  8  4  0  0  0  0
  3  4  4  0  0  0  0
  3 11  1  0  0  0  0
  4  5  4  0  0  0  0
  4  9  1  0  0  0  0
  5  6  4  0  0  0  0
  6  7  1  0  0  0  0
  6  8  4  0  0  0  0
  9 10  1  0  0  0  0
 10 11  1  0  0  0  0
 10 13  1  0  0  0  0
 11 12  2  0  0  0  0
 13 14  4  0  0  0  0
 13 31  4  0  0  0  0
 14 15  4  0  0  0  0
 15 16  1  0  0  0  0
 15 27  4  0  0  0  0
 16 17  1  0  0  0  0
 17 18  1  0  0  0  0
 18 19  1  0  0  0  0
 19 20  1  0  0  0  0
 19 24  1  0  0  0  0
 20 21  1  0  0  0  0
 20 26  1  0  0  0  0
 21 22  1  0  0  0  0
 22 23  1  0  0  0  0
 23 24  1  0  0  0  0
 24 25  1  0  0  0  0
 27 28  1  0  0  0  0
 27 30  4  0  0  0  0
 28 29  1  0  0  0  0
 30 31  4  0  0  0  0
M  END
>  <Name_Molregno>
394973

>  <5-HT2A>
6.5

>  <5-HT2C>
8.2

$$$$
394976
  Marvin  02231216192D 0   1.00000     0.00000     0

 31 34  0  0  0  0  0  0  0  0999 V2000
    7.9678   -0.9473    0.0000 Cl  0  0  0  0  0  0  0  0  0
    7.9678   -0.1223    0.0000 C   0  0  0  0  0  0  0  0  0
    7.2534    0.2902    0.0000 C   0  0  0  0  0  0  0  0  0
    7.2534    1.1152    0.0000 C   0  0  0  0  0  0  0  0  0
    7.9678    1.5277    0.0000 C   0  0  0  0  0  0  0  0  0
    8.6823    1.1152    0.0000 C   0  0  0  0  0  0  0  0  0
    9.3968    1.5277    0.0000 Cl  0  0  0  0  0  0  0  0  0
    8.6823    0.2902    0.0000 C   0  0  0  0  0  0  0  0  0
    6.4688    1.3701    0.0000 C   0  0  0  0  0  0  0  0  0
    5.9838    0.7027    0.0000 N   0  0  0  0  0  0  0  0  0
    6.4688    0.0353    0.0000 C   0  0  0  0  0  0  0  0  0
    6.2138   -0.7494    0.0000 O   0  0  0  0  0  0  0  0  0
    5.1588    0.7027    0.0000 C   0  0  0  0  0  0  0  0  0
    4.7463   -0.0118    0.0000 C   0  0  0  0  0  0  0  0  0
    3.9213   -0.0118    0.0000 C   0  0  0  0  0  0  0  0  0
    3.5088   -0.7262    0.0000 O   0  0  0  0  0  0  0  0  0
    2.6838   -0.7262    0.0000 C   0  0  0  0  0  0  0  0  0
    2.2713   -1.4407    0.0000 C   0  0  0  0  0  0  0  0  0
    1.4463   -1.4407    0.0000 N   0  0  0  0  0  0  0  0  0
    1.0338   -2.1552    0.0000 C   0  0  0  0  0  0  0  0  0
    0.2088   -2.1552    0.0000 C   0  0  0  0  0  0  0  0  0
   -0.2037   -1.4407    0.0000 C   0  0  0  0  0  0  0  0  0
    0.2088   -0.7262    0.0000 C   0  0  0  0  0  0  0  0  0
    1.0338   -0.7262    0.0000 C   0  0  0  0  0  0  0  0  0
   -0.9321   -1.8280    0.0000 C   0  0  0  0  0  0  0  0  0
   -0.9321   -1.0534    0.0000 C   0  0  0  0  0  0  0  0  0
    3.5088    0.7027    0.0000 C   0  0  0  0  0  0  0  0  0
    2.6838    0.7027    0.0000 O   0  0  0  0  0  0  0  0  0
    2.2713    1.4172    0.0000 C   0  0  0  0  0  0  0  0  0
    3.9213    1.4172    0.0000 C   0  0  0  0  0  0  0  0  0
    4.7463    1.4172    0.0000 C   0  0  0  0  0  0  0  0  0
  1  2  1  0  0  0  0
  2  3  4  0  0  0  0
  2  8  4  0  0  0  0
  3  4  4  0  0  0  0
  3 11  1  0  0  0  0
  4  5  4  0  0  0  0
  4  9  1  0  0  0  0
  5  6  4  0  0  0  0
  6  7  1  0  0  0  0
  6  8  4  0  0  0  0
  9 10  1  0  0  0  0
 10 11  1  0  0  0  0
 10 13  1  0  0  0  0
 11 12  2  0  0  0  0
 13 14  4  0  0  0  0
 13 31  4  0  0  0  0
 14 15  4  0  0  0  0
 15 16  1  0  0  0  0
 15 27  4  0  0  0  0
 16 17  1  0  0  0  0
 17 18  1  0  0  0  0
 18 19  1  0  0  0  0
 19 20  1  0  0  0  0
 19 24  1  0  0  0  0
 20 21  1  0  0  0  0
 21 22  1  0  0  0  0
 22 23  1  0  0  0  0
 22 25  1  0  0  0  0
 22 26  1  0  0  0  0
 23 24  1  0  0  0  0
 27 28  1  0  0  0  0
 27 30  4  0  0  0  0
 28 29  1  0  0  0  0
 30 31  4  0  0  0  0
M  END
>  <Name_Molregno>
394976

>  <5-HT2A>
6.4

>  <5-HT2C>
8.7

$$$$
394977
  Marvin  02231216192D 0   1.00000     0.00000     0

 30 33  0  0  0  0  0  0  0  0999 V2000
    7.5829   -1.1005    0.0000 Cl  0  0  0  0  0  0  0  0  0
    7.5829   -0.2755    0.0000 C   0  0  0  0  0  0  0  0  0
    6.8684    0.1370    0.0000 C   0  0  0  0  0  0  0  0  0
    6.8684    0.9620    0.0000 C   0  0  0  0  0  0  0  0  0
    7.5829    1.3745    0.0000 C   0  0  0  0  0  0  0  0  0
    8.2974    0.9620    0.0000 C   0  0  0  0  0  0  0  0  0
    9.0118    1.3745    0.0000 Cl  0  0  0  0  0  0  0  0  0
    8.2974    0.1370    0.0000 C   0  0  0  0  0  0  0  0  0
    6.0838    1.2169    0.0000 C   0  0  0  0  0  0  0  0  0
    5.5989    0.5495    0.0000 N   0  0  0  0  0  0  0  0  0
    6.0838   -0.1180    0.0000 C   0  0  0  0  0  0  0  0  0
    5.8289   -0.9026    0.0000 O   0  0  0  0  0  0  0  0  0
    4.7739    0.5495    0.0000 C   0  0  0  0  0  0  0  0  0
    4.3614   -0.1650    0.0000 C   0  0  0  0  0  0  0  0  0
    3.5364   -0.1650    0.0000 C   0  0  0  0  0  0  0  0  0
    3.1239   -0.8795    0.0000 O   0  0  0  0  0  0  0  0  0
    2.2989   -0.8795    0.0000 C   0  0  0  0  0  0  0  0  0
    1.8864   -1.5940    0.0000 C   0  0  0  0  0  0  0  0  0
    1.0614   -1.5940    0.0000 N   0  0  0  0  0  0  0  0  0
    0.7034   -2.3373    0.0000 C   0  0  0  0  0  0  0  0  0
   -0.1009   -2.5208    0.0000 C   0  0  0  0  0  0  0  0  0
   -0.7459   -2.0065    0.0000 C   0  0  0  0  0  0  0  0  0
   -0.7459   -1.1815    0.0000 C   0  0  0  0  0  0  0  0  0
   -0.1009   -0.6671    0.0000 C   0  0  0  0  0  0  0  0  0
    0.7034   -0.8507    0.0000 C   0  0  0  0  0  0  0  0  0
    3.1239    0.5495    0.0000 C   0  0  0  0  0  0  0  0  0
    2.2989    0.5495    0.0000 O   0  0  0  0  0  0  0  0  0
    1.8864    1.2639    0.0000 C   0  0  0  0  0  0  0  0  0
    3.5364    1.2639    0.0000 C   0  0  0  0  0  0  0  0  0
    4.3614    1.2639    0.0000 C   0  0  0  0  0  0  0  0  0
  1  2  1  0  0  0  0
  2  3  4  0  0  0  0
  2  8  4  0  0  0  0
  3  4  4  0  0  0  0
  3 11  1  0  0  0  0
  4  5  4  0  0  0  0
  4  9  1  0  0  0  0
  5  6  4  0  0  0  0
  6  7  1  0  0  0  0
  6  8  4  0  0  0  0
  9 10  1  0  0  0  0
 10 11  1  0  0  0  0
 10 13  1  0  0  0  0
 11 12  2  0  0  0  0
 13 14  4  0  0  0  0
 13 30  4  0  0  0  0
 14 15  4  0  0  0  0
 15 16  1  0  0  0  0
 15 26  4  0  0  0  0
 16 17  1  0  0  0  0
 17 18  1  0  0  0  0
 18 19  1  0  0  0  0
 19 20  1  0  0  0  0
 19 25  1  0  0  0  0
 20 21  1  0  0  0  0
 21 22  1  0  0  0  0
 22 23  1  0  0  0  0
 23 24  1  0  0  0  0
 24 25  1  0  0  0  0
 26 27  1  0  0  0  0
 26 29  4  0  0  0  0
 27 28  1  0  0  0  0
 29 30  4  0  0  0  0
M  END
>  <Name_Molregno>
394977

>  <5-HT2A>
6.2

>  <5-HT2C>
8.6

$$$$
394980
  Marvin  02231216192D 0   1.00000     0.00000     0

 29 32  0  0  0  0  0  0  0  0999 V2000
   -0.0467   -1.9968    0.0000 Cl  0  0  0  0  0  0  0  0  0
   -0.0467   -1.1718    0.0000 C   0  0  0  0  0  0  0  0  0
   -0.7611   -0.7593    0.0000 C   0  0  0  0  0  0  0  0  0
   -0.7611    0.0657    0.0000 C   0  0  0  0  0  0  0  0  0
   -0.0467    0.4782    0.0000 C   0  0  0  0  0  0  0  0  0
    0.6678    0.0657    0.0000 C   0  0  0  0  0  0  0  0  0
    1.3823    0.4782    0.0000 Cl  0  0  0  0  0  0  0  0  0
    0.6678   -0.7593    0.0000 C   0  0  0  0  0  0  0  0  0
   -1.5457    0.3206    0.0000 C   0  0  0  0  0  0  0  0  0
   -2.0307   -0.3468    0.0000 N   0  0  0  0  0  0  0  0  0
   -1.5457   -1.0143    0.0000 C   0  0  0  0  0  0  0  0  0
   -1.8007   -1.7989    0.0000 O   0  0  0  0  0  0  0  0  0
   -2.8557   -0.3468    0.0000 C   0  0  0  0  0  0  0  0  0
   -3.2682   -1.0613    0.0000 C   0  0  0  0  0  0  0  0  0
   -4.0932   -1.0613    0.0000 C   0  0  0  0  0  0  0  0  0
   -4.5057   -1.7758    0.0000 O   0  0  0  0  0  0  0  0  0
   -5.3307   -1.7758    0.0000 C   0  0  0  0  0  0  0  0  0
   -5.7432   -2.4902    0.0000 C   0  0  0  0  0  0  0  0  0
   -6.5682   -2.4902    0.0000 N   0  0  0  0  0  0  0  0  0
   -6.9807   -3.2047    0.0000 C   0  0  0  0  0  0  0  0  0
   -7.8057   -3.2047    0.0000 C   0  0  0  0  0  0  0  0  0
   -8.2182   -2.4902    0.0000 O   0  0  0  0  0  0  0  0  0
   -7.8057   -1.7758    0.0000 C   0  0  0  0  0  0  0  0  0
   -6.9807   -1.7758    0.0000 C   0  0  0  0  0  0  0  0  0
   -4.5057   -0.3468    0.0000 C   0  0  0  0  0  0  0  0  0
   -5.3307   -0.3468    0.0000 O   0  0  0  0  0  0  0  0  0
   -5.7432    0.3677    0.0000 C   0  0  0  0  0  0  0  0  0
   -4.0932    0.3677    0.0000 C   0  0  0  0  0  0  0  0  0
   -3.2682    0.3677    0.0000 C   0  0  0  0  0  0  0  0  0
  1  2  1  0  0  0  0
  2  3  4  0  0  0  0
  2  8  4  0  0  0  0
  3  4  4  0  0  0  0
  3 11  1  0  0  0  0
  4  5  4  0  0  0  0
  4  9  1  0  0  0  0
  5  6  4  0  0  0  0
  6  7  1  0  0  0  0
  6  8  4  0  0  0  0
  9 10  1  0  0  0  0
 10 11  1  0  0  0  0
 10 13  1  0  0  0  0
 11 12  2  0  0  0  0
 13 14  4  0  0  0  0
 13 29  4  0  0  0  0
 14 15  4  0  0  0  0
 15 16  1  0  0  0  0
 15 25  4  0  0  0  0
 16 17  1  0  0  0  0
 17 18  1  0  0  0  0
 18 19  1  0  0  0  0
 19 20  1  0  0  0  0
 19 24  1  0  0  0  0
 20 21  1  0  0  0  0
 21 22  1  0  0  0  0
 22 23  1  0  0  0  0
 23 24  1  0  0  0  0
 25 26  1  0  0  0  0
 25 28  4  0  0  0  0
 26 27  1  0  0  0  0
 28 29  4  0  0  0  0
M  END
>  <Name_Molregno>
394980

>  <5-HT2A>
5.1

>  <5-HT2C>
7.9

$$$$
396368
  Marvin  02231216192D 0   1.00000     0.00000     0

 29 32  0  0  0  0  0  0  0  0999 V2000
   -1.8341   -0.7311    0.0000 O   0  0  0  0  0  0  0  0  0
   -2.6591   -0.7311    0.0000 C   0  0  0  0  0  0  0  0  0
   -3.0716   -0.0166    0.0000 C   0  0  0  0  0  0  0  0  0
   -3.8966   -0.0166    0.0000 N   0  0  0  0  0  0  0  0  0
   -4.3091   -0.7311    0.0000 C   0  0  0  0  0  0  0  0  0
   -5.1341   -0.7311    0.0000 C   0  0  0  0  0  0  0  0  0
   -5.5466   -0.0166    0.0000 C   0  0  0  0  0  0  0  0  0
   -5.1341    0.6978    0.0000 C   0  0  0  0  0  0  0  0  0
   -4.3091    0.6978    0.0000 C   0  0  0  0  0  0  0  0  0
   -6.3716   -0.0166    0.0000 C   0  0  0  0  0  0  0  0  0
   -1.4216   -1.4456    0.0000 C   0  0  0  0  0  0  0  0  0
   -0.5966   -1.4456    0.0000 C   0  0  0  0  0  0  0  0  0
   -0.1841   -2.1600    0.0000 C   0  0  0  0  0  0  0  0  0
    0.6409   -2.1600    0.0000 N   0  0  0  0  0  0  0  0  0
    1.1258   -2.8275    0.0000 C   0  0  0  0  0  0  0  0  0
    1.9104   -2.5725    0.0000 C   0  0  0  0  0  0  0  0  0
    1.9104   -1.7475    0.0000 C   0  0  0  0  0  0  0  0  0
    2.6249   -1.3350    0.0000 C   0  0  0  0  0  0  0  0  0
    3.3394   -1.7475    0.0000 C   0  0  0  0  0  0  0  0  0
    3.3394   -2.5725    0.0000 C   0  0  0  0  0  0  0  0  0
    2.6249   -2.9850    0.0000 C   0  0  0  0  0  0  0  0  0
    2.6249   -0.5100    0.0000 C   0  0  0  0  0  0  0  0  0
    1.1258   -1.4926    0.0000 C   0  0  0  0  0  0  0  0  0
    0.8709   -0.7080    0.0000 O   0  0  0  0  0  0  0  0  0
   -0.5966   -2.8745    0.0000 C   0  0  0  0  0  0  0  0  0
   -1.4216   -2.8745    0.0000 C   0  0  0  0  0  0  0  0  0
   -1.8341   -2.1600    0.0000 C   0  0  0  0  0  0  0  0  0
   -2.6591   -2.1600    0.0000 O   0  0  0  0  0  0  0  0  0
   -3.0716   -2.8745    0.0000 C   0  0  0  0  0  0  0  0  0
  1  2  1  0  0  0  0
  1 11  1  0  0  0  0
  2  3  1  0  0  0  0
  3  4  1  0  0  0  0
  4  5  1  0  0  0  0
  4  9  1  0  0  0  0
  5  6  1  0  0  0  0
  6  7  1  0  0  0  0
  7  8  1  0  0  0  0
  7 10  1  0  0  0  0
  8  9  1  0  0  0  0
 11 12  4  0  0  0  0
 11 27  4  0  0  0  0
 12 13  4  0  0  0  0
 13 14  1  0  0  0  0
 13 25  4  0  0  0  0
 14 15  1  0  0  0  0
 14 23  1  0  0  0  0
 15 16  1  0  0  0  0
 16 17  4  0  0  0  0
 16 21  4  0  0  0  0
 17 18  4  0  0  0  0
 17 23  1  0  0  0  0
 18 19  4  0  0  0  0
 18 22  1  0  0  0  0
 19 20  4  0  0  0  0
 20 21  4  0  0  0  0
 23 24  2  0  0  0  0
 25 26  4  0  0  0  0
 26 27  4  0  0  0  0
 27 28  1  0  0  0  0
 28 29  1  0  0  0  0
M  END
>  <Name_Molregno>
396368

>  <5-HT2A>
5.2

>  <5-HT2C>
8.6

$$$$
405786
  Marvin  02231216192D 0   1.00000     0.00000     0

 16 18  0  0  1  0  0  0  0  0999 V2000
   -4.1976   -1.0327    0.0000 N   0  0  0  0  0  0  0  0  0
   -4.6825   -0.3653    0.0000 N   0  0  0  0  0  0  0  0  0
   -4.1976    0.3022    0.0000 C   0  0  0  0  0  0  0  0  0
   -3.4129    0.0472    0.0000 C   0  0  0  0  0  0  0  0  0
   -2.6985    0.4597    0.0000 C   0  0  0  0  0  0  0  0  0
   -1.9840    0.0472    0.0000 C   0  0  0  0  0  0  0  0  0
   -1.2695    0.4597    0.0000 N   0  0  0  0  0  0  0  0  0
   -0.5551    0.0472    0.0000 C   0  0  0  0  0  0  0  0  0
   -0.5551   -0.7778    0.0000 C   0  0  0  0  0  0  0  0  0
   -1.2695   -1.1903    0.0000 C   0  0  0  0  0  0  0  0  0
   -1.9840   -0.7778    0.0000 C   0  0  0  0  0  0  0  0  0
   -2.6985   -1.1903    0.0000 C   0  0  0  0  0  0  0  0  0
   -3.4129   -0.7778    0.0000 C   0  0  0  0  0  0  0  0  0
   -1.2695    1.2847    0.0000 C   0  0  0  0  0  0  0  0  0
   -0.5551    1.6972    0.0000 C   0  0  0  0  0  0  0  0  0
   -0.5551    2.5222    0.0000 C   0  0  0  0  0  0  0  0  0
  1  2  4  0  0  0  0
  1 13  4  0  0  0  0
  2  3  4  0  0  0  0
  3  4  4  0  0  0  0
  4  5  1  0  0  0  0
  4 13  4  0  0  0  0
  5  6  1  0  0  0  0
  6  7  1  0  0  0  0
  6 11  1  0  0  0  0
  7  8  1  0  0  0  0
  7 14  1  0  0  0  0
  8  9  1  0  0  0  0
  9 10  1  0  0  0  0
 10 11  1  0  0  0  0
 11 12  1  0  0  0  0
 12 13  1  0  0  0  0
 14 15  1  0  0  0  0
 15 16  1  0  0  0  0
M  STY  1   1 DAT
M  SAL   1  1   1
M  SDT   1 MRV_IMPLICIT_H                                        
M  SDD   1     0.0000    0.0000    DR    ALL  0       0  
M  SED   1 IMPL_H1
M  END
>  <Name_Molregno>
405786

>  <5-HT1A>
5.77

>  <5-HT1B>
5

>  <5-HT1D>
5

>  <5-HT2A>
5.24

>  <5-HT2C>
5.24

>  <Alpha-1A>
5

>  <Alpha-1B>
5

>  <Alpha-2A>
5

>  <Alpha-2B>
5.6

>  <Alpha-2C>
5

>  <Beta-1>
5

>  <Beta-2>
5

>  <DOPAMINE D1>
5

>  <DOPAMINE D2>
6.31

>  <DOPAMINE D3>
7.73

>  <DOPAMINE D4>
7.37

>  <DOPAMINE D5>
5

$$$$
409193
  Marvin  02231216192D 0   1.00000     0.00000     0

 34 38  0  0  0  0  0  0  0  0999 V2000
   -4.5528   -1.8767    0.0000 F   0  0  0  0  0  0  0  0  0
   -5.2673   -2.2892    0.0000 C   0  0  0  0  0  0  0  0  0
   -5.2673   -3.1142    0.0000 C   0  0  0  0  0  0  0  0  0
   -4.5528   -3.5267    0.0000 N   0  0  0  0  0  0  0  0  0
   -4.5528   -4.3517    0.0000 C   0  0  0  0  0  0  0  0  0
   -3.8384   -4.7642    0.0000 O   0  0  0  0  0  0  0  0  0
   -5.2673   -4.7642    0.0000 C   0  0  0  0  0  0  0  0  0
   -5.9818   -4.3517    0.0000 O   0  0  0  0  0  0  0  0  0
   -5.9818   -3.5267    0.0000 C   0  0  0  0  0  0  0  0  0
   -6.6962   -3.1142    0.0000 C   0  0  0  0  0  0  0  0  0
   -6.6962   -2.2892    0.0000 C   0  0  0  0  0  0  0  0  0
   -5.9818   -1.8767    0.0000 C   0  0  0  0  0  0  0  0  0
   -5.9818   -1.0517    0.0000 C   0  0  0  0  0  0  0  0  0
   -5.2673   -0.6392    0.0000 C   0  0  0  0  0  0  0  0  0
   -5.2673    0.1858    0.0000 C   0  0  0  0  0  0  0  0  0
   -4.5528    0.5983    0.0000 C   0  0  0  0  0  0  0  0  0
   -3.8384    0.1858    0.0000 N   0  0  0  0  0  0  0  0  0
   -3.8384   -0.6392    0.0000 C   0  0  0  0  0  0  0  0  0
   -4.5528   -1.0517    0.0000 C   0  0  0  0  0  0  0  0  0
   -3.1239    0.5983    0.0000 C   0  0  0  0  0  0  0  0  0
   -3.1239    1.4233    0.0000 C   0  0  0  0  0  0  0  0  0
   -2.4094    1.8358    0.0000 O   0  0  0  0  0  0  0  0  0
   -2.4094    2.6608    0.0000 C   0  0  0  0  0  0  0  0  0
   -3.1239    3.0733    0.0000 C   0  0  0  0  0  0  0  0  0
   -3.1239    3.8983    0.0000 C   0  0  0  0  0  0  0  0  0
   -3.8384    4.3108    0.0000 F   0  0  0  0  0  0  0  0  0
   -2.4094    4.3108    0.0000 C   0  0  0  0  0  0  0  0  0
   -1.6949    3.8983    0.0000 C   0  0  0  0  0  0  0  0  0
   -0.9805    4.3108    0.0000 N   0  0  0  0  0  0  0  0  0
   -0.2660    3.8983    0.0000 C   0  0  0  0  0  0  0  0  0
   -0.2660    3.0733    0.0000 C   0  0  0  0  0  0  0  0  0
   -0.9805    2.6608    0.0000 C   0  0  0  0  0  0  0  0  0
   -1.6949    3.0733    0.0000 C   0  0  0  0  0  0  0  0  0
    0.4485    4.3108    0.0000 C   0  0  0  0  0  0  0  0  0
  1  2  1  0  0  0  0
  2  3  4  0  0  0  0
  2 12  4  0  0  0  0
  3  4  1  0  0  0  0
  3  9  4  0  0  0  0
  4  5  1  0  0  0  0
  5  6  2  0  0  0  0
  5  7  1  0  0  0  0
  7  8  1  0  0  0  0
  8  9  1  0  0  0  0
  9 10  4  0  0  0  0
 10 11  4  0  0  0  0
 11 12  4  0  0  0  0
 12 13  1  0  0  0  0
 13 14  1  0  0  0  0
 14 15  1  0  0  0  0
 14 19  1  0  0  0  0
 15 16  1  0  0  0  0
 16 17  1  0  0  0  0
 17 18  1  0  0  0  0
 17 20  1  0  0  0  0
 18 19  1  0  0  0  0
 20 21  1  0  0  0  0
 21 22  1  0  0  0  0
 22 23  1  0  0  0  0
 23 24  4  0  0  0  0
 23 33  4  0  0  0  0
 24 25  4  0  0  0  0
 25 26  1  0  0  0  0
 25 27  4  0  0  0  0
 27 28  4  0  0  0  0
 28 29  4  0  0  0  0
 28 33  4  0  0  0  0
 29 30  4  0  0  0  0
 30 31  4  0  0  0  0
 30 34  1  0  0  0  0
 31 32  4  0  0  0  0
 32 33  4  0  0  0  0
M  END
>  <Name_Molregno>
409193

>  <5-HT1A>
8.8

>  <5-HT1B>
6.4

>  <5-HT1D>
7

>  <5-HT2A>
5.7

>  <5-HT2C>
5.6

>  <5-HT6>
5

>  <5-HT7>
6.9

>  <DOPAMINE D2>
5.9

>  <DOPAMINE D3>
6.1

$$$$
409194
  Marvin  02231216192D 0   1.00000     0.00000     0

 34 38  0  0  0  0  0  0  0  0999 V2000
   -2.9576    0.9914    0.0000 Cl  0  0  0  0  0  0  0  0  0
   -2.2431    0.5789    0.0000 C   0  0  0  0  0  0  0  0  0
   -2.2431   -0.2461    0.0000 C   0  0  0  0  0  0  0  0  0
   -1.5287   -0.6586    0.0000 C   0  0  0  0  0  0  0  0  0
   -1.5287   -1.4836    0.0000 O   0  0  0  0  0  0  0  0  0
   -2.2431   -1.8961    0.0000 C   0  0  0  0  0  0  0  0  0
   -2.2431   -2.7211    0.0000 C   0  0  0  0  0  0  0  0  0
   -2.9576   -3.1336    0.0000 N   0  0  0  0  0  0  0  0  0
   -2.9576   -3.9586    0.0000 C   0  0  0  0  0  0  0  0  0
   -3.6721   -4.3711    0.0000 C   0  0  0  0  0  0  0  0  0
   -4.3866   -3.9586    0.0000 C   0  0  0  0  0  0  0  0  0
   -4.3866   -3.1336    0.0000 C   0  0  0  0  0  0  0  0  0
   -3.6721   -2.7211    0.0000 C   0  0  0  0  0  0  0  0  0
   -5.1010   -4.3711    0.0000 C   0  0  0  0  0  0  0  0  0
   -5.8155   -3.9586    0.0000 C   0  0  0  0  0  0  0  0  0
   -6.5300   -4.3711    0.0000 C   0  0  0  0  0  0  0  0  0
   -7.2444   -3.9586    0.0000 C   0  0  0  0  0  0  0  0  0
   -7.2444   -3.1336    0.0000 C   0  0  0  0  0  0  0  0  0
   -7.9589   -2.7211    0.0000 O   0  0  0  0  0  0  0  0  0
   -7.9589   -1.8961    0.0000 C   0  0  0  0  0  0  0  0  0
   -7.2444   -1.4836    0.0000 C   0  0  0  0  0  0  0  0  0
   -7.2444   -0.6586    0.0000 O   0  0  0  0  0  0  0  0  0
   -6.5300   -1.8961    0.0000 N   0  0  0  0  0  0  0  0  0
   -6.5300   -2.7211    0.0000 C   0  0  0  0  0  0  0  0  0
   -5.8155   -3.1336    0.0000 C   0  0  0  0  0  0  0  0  0
   -5.1010   -2.7211    0.0000 F   0  0  0  0  0  0  0  0  0
   -0.8142   -0.2461    0.0000 C   0  0  0  0  0  0  0  0  0
   -0.8142    0.5789    0.0000 C   0  0  0  0  0  0  0  0  0
   -0.0997    0.9914    0.0000 N   0  0  0  0  0  0  0  0  0
    0.6147    0.5789    0.0000 C   0  0  0  0  0  0  0  0  0
    0.6147   -0.2461    0.0000 C   0  0  0  0  0  0  0  0  0
   -0.0997   -0.6586    0.0000 C   0  0  0  0  0  0  0  0  0
    1.3292    0.9914    0.0000 C   0  0  0  0  0  0  0  0  0
   -1.5287    0.9914    0.0000 C   0  0  0  0  0  0  0  0  0
  1  2  1  0  0  0  0
  2  3  4  0  0  0  0
  2 34  4  0  0  0  0
  3  4  4  0  0  0  0
  4  5  1  0  0  0  0
  4 27  4  0  0  0  0
  5  6  1  0  0  0  0
  6  7  1  0  0  0  0
  7  8  1  0  0  0  0
  8  9  1  0  0  0  0
  8 13  1  0  0  0  0
  9 10  1  0  0  0  0
 10 11  1  0  0  0  0
 11 12  1  0  0  0  0
 11 14  1  0  0  0  0
 12 13  1  0  0  0  0
 14 15  1  0  0  0  0
 15 16  4  0  0  0  0
 15 25  4  0  0  0  0
 16 17  4  0  0  0  0
 17 18  4  0  0  0  0
 18 19  1  0  0  0  0
 18 24  4  0  0  0  0
 19 20  1  0  0  0  0
 20 21  1  0  0  0  0
 21 22  2  0  0  0  0
 21 23  1  0  0  0  0
 23 24  1  0  0  0  0
 24 25  4  0  0  0  0
 25 26  1  0  0  0  0
 27 28  4  0  0  0  0
 27 32  4  0  0  0  0
 28 29  4  0  0  0  0
 28 34  4  0  0  0  0
 29 30  4  0  0  0  0
 30 31  4  0  0  0  0
 30 33  1  0  0  0  0
 31 32  4  0  0  0  0
M  END
>  <Name_Molregno>
409194

>  <5-HT1A>
8.6

>  <5-HT1B>
5.8

>  <5-HT1D>
6.2

>  <5-HT2A>
5.4

>  <5-HT2C>
5.4

>  <5-HT6>
5

>  <5-HT7>
6.9

>  <DOPAMINE D2>
5.9

>  <DOPAMINE D3>
6

$$$$
409196
  Marvin  02231216192D 0   1.00000     0.00000     0

 34 38  0  0  0  0  0  0  0  0999 V2000
   -4.5009   -2.0892    0.0000 F   0  0  0  0  0  0  0  0  0
   -5.2153   -2.5017    0.0000 C   0  0  0  0  0  0  0  0  0
   -5.2153   -3.3267    0.0000 C   0  0  0  0  0  0  0  0  0
   -5.9298   -3.7392    0.0000 C   0  0  0  0  0  0  0  0  0
   -5.9298   -4.5642    0.0000 O   0  0  0  0  0  0  0  0  0
   -6.6443   -4.9767    0.0000 C   0  0  0  0  0  0  0  0  0
   -7.3588   -4.5642    0.0000 C   0  0  0  0  0  0  0  0  0
   -8.0732   -4.9767    0.0000 O   0  0  0  0  0  0  0  0  0
   -7.3588   -3.7392    0.0000 N   0  0  0  0  0  0  0  0  0
   -6.6443   -3.3267    0.0000 C   0  0  0  0  0  0  0  0  0
   -6.6443   -2.5017    0.0000 C   0  0  0  0  0  0  0  0  0
   -5.9298   -2.0892    0.0000 C   0  0  0  0  0  0  0  0  0
   -5.9298   -1.2642    0.0000 C   0  0  0  0  0  0  0  0  0
   -5.2153   -0.8517    0.0000 C   0  0  0  0  0  0  0  0  0
   -5.2153   -0.0267    0.0000 C   0  0  0  0  0  0  0  0  0
   -4.5009    0.3858    0.0000 C   0  0  0  0  0  0  0  0  0
   -3.7864   -0.0267    0.0000 N   0  0  0  0  0  0  0  0  0
   -3.7864   -0.8517    0.0000 C   0  0  0  0  0  0  0  0  0
   -4.5009   -1.2642    0.0000 C   0  0  0  0  0  0  0  0  0
   -3.0719    0.3858    0.0000 C   0  0  0  0  0  0  0  0  0
   -3.0719    1.2108    0.0000 C   0  0  0  0  0  0  0  0  0
   -2.3575    1.6233    0.0000 O   0  0  0  0  0  0  0  0  0
   -2.3575    2.4483    0.0000 C   0  0  0  0  0  0  0  0  0
   -3.0719    2.8608    0.0000 C   0  0  0  0  0  0  0  0  0
   -3.0719    3.6858    0.0000 C   0  0  0  0  0  0  0  0  0
   -3.7864    4.0983    0.0000 F   0  0  0  0  0  0  0  0  0
   -2.3575    4.0983    0.0000 C   0  0  0  0  0  0  0  0  0
   -1.6430    3.6858    0.0000 C   0  0  0  0  0  0  0  0  0
   -0.9285    4.0983    0.0000 N   0  0  0  0  0  0  0  0  0
   -0.2141    3.6858    0.0000 C   0  0  0  0  0  0  0  0  0
   -0.2141    2.8608    0.0000 C   0  0  0  0  0  0  0  0  0
   -0.9285    2.4483    0.0000 C   0  0  0  0  0  0  0  0  0
   -1.6430    2.8608    0.0000 C   0  0  0  0  0  0  0  0  0
    0.5004    4.0983    0.0000 C   0  0  0  0  0  0  0  0  0
  1  2  1  0  0  0  0
  2  3  4  0  0  0  0
  2 12  4  0  0  0  0
  3  4  4  0  0  0  0
  4  5  1  0  0  0  0
  4 10  4  0  0  0  0
  5  6  1  0  0  0  0
  6  7  1  0  0  0  0
  7  8  2  0  0  0  0
  7  9  1  0  0  0  0
  9 10  1  0  0  0  0
 10 11  4  0  0  0  0
 11 12  4  0  0  0  0
 12 13  1  0  0  0  0
 13 14  1  0  0  0  0
 14 15  1  0  0  0  0
 14 19  1  0  0  0  0
 15 16  1  0  0  0  0
 16 17  1  0  0  0  0
 17 18  1  0  0  0  0
 17 20  1  0  0  0  0
 18 19  1  0  0  0  0
 20 21  1  0  0  0  0
 21 22  1  0  0  0  0
 22 23  1  0  0  0  0
 23 24  4  0  0  0  0
 23 33  4  0  0  0  0
 24 25  4  0  0  0  0
 25 26  1  0  0  0  0
 25 27  4  0  0  0  0
 27 28  4  0  0  0  0
 28 29  4  0  0  0  0
 28 33  4  0  0  0  0
 29 30  4  0  0  0  0
 30 31  4  0  0  0  0
 30 34  1  0  0  0  0
 31 32  4  0  0  0  0
 32 33  4  0  0  0  0
M  END
>  <Name_Molregno>
409196

>  <5-HT1A>
9.4

>  <5-HT1B>
6

>  <5-HT1D>
6.6

>  <5-HT2A>
5.7

>  <5-HT2C>
5.9

>  <5-HT6>
6

>  <5-HT7>
7.4

>  <DOPAMINE D2>
5.7

>  <DOPAMINE D3>
6.3

$$$$
409197
  Marvin  02231216192D 0   1.00000     0.00000     0

 34 38  0  0  0  0  0  0  0  0999 V2000
   -2.6497    1.0445    0.0000 Cl  0  0  0  0  0  0  0  0  0
   -1.9352    0.6320    0.0000 C   0  0  0  0  0  0  0  0  0
   -1.9352   -0.1930    0.0000 C   0  0  0  0  0  0  0  0  0
   -1.2208   -0.6055    0.0000 C   0  0  0  0  0  0  0  0  0
   -1.2208   -1.4305    0.0000 O   0  0  0  0  0  0  0  0  0
   -1.9352   -1.8430    0.0000 C   0  0  0  0  0  0  0  0  0
   -1.9352   -2.6680    0.0000 C   0  0  0  0  0  0  0  0  0
   -2.6497   -3.0805    0.0000 N   0  0  0  0  0  0  0  0  0
   -2.6497   -3.9055    0.0000 C   0  0  0  0  0  0  0  0  0
   -3.3642   -4.3180    0.0000 C   0  0  0  0  0  0  0  0  0
   -4.0786   -3.9055    0.0000 C   0  0  0  0  0  0  0  0  0
   -4.0786   -3.0805    0.0000 C   0  0  0  0  0  0  0  0  0
   -3.3642   -2.6680    0.0000 C   0  0  0  0  0  0  0  0  0
   -4.7931   -4.3180    0.0000 C   0  0  0  0  0  0  0  0  0
   -5.5076   -3.9055    0.0000 C   0  0  0  0  0  0  0  0  0
   -6.2220   -4.3180    0.0000 C   0  0  0  0  0  0  0  0  0
   -6.9365   -3.9055    0.0000 C   0  0  0  0  0  0  0  0  0
   -7.6510   -4.3180    0.0000 N   0  0  0  0  0  0  0  0  0
   -8.3655   -3.9055    0.0000 C   0  0  0  0  0  0  0  0  0
   -9.0799   -4.3180    0.0000 O   0  0  0  0  0  0  0  0  0
   -8.3655   -3.0805    0.0000 C   0  0  0  0  0  0  0  0  0
   -7.6510   -2.6680    0.0000 O   0  0  0  0  0  0  0  0  0
   -6.9365   -3.0805    0.0000 C   0  0  0  0  0  0  0  0  0
   -6.2220   -2.6680    0.0000 C   0  0  0  0  0  0  0  0  0
   -5.5076   -3.0805    0.0000 C   0  0  0  0  0  0  0  0  0
   -4.7931   -2.6680    0.0000 F   0  0  0  0  0  0  0  0  0
   -0.5063   -0.1930    0.0000 C   0  0  0  0  0  0  0  0  0
   -0.5063    0.6320    0.0000 C   0  0  0  0  0  0  0  0  0
    0.2082    1.0445    0.0000 N   0  0  0  0  0  0  0  0  0
    0.9227    0.6320    0.0000 C   0  0  0  0  0  0  0  0  0
    0.9227   -0.1930    0.0000 C   0  0  0  0  0  0  0  0  0
    0.2082   -0.6055    0.0000 C   0  0  0  0  0  0  0  0  0
    1.6371    1.0445    0.0000 C   0  0  0  0  0  0  0  0  0
   -1.2208    1.0445    0.0000 C   0  0  0  0  0  0  0  0  0
  1  2  1  0  0  0  0
  2  3  4  0  0  0  0
  2 34  4  0  0  0  0
  3  4  4  0  0  0  0
  4  5  1  0  0  0  0
  4 27  4  0  0  0  0
  5  6  1  0  0  0  0
  6  7  1  0  0  0  0
  7  8  1  0  0  0  0
  8  9  1  0  0  0  0
  8 13  1  0  0  0  0
  9 10  1  0  0  0  0
 10 11  1  0  0  0  0
 11 12  1  0  0  0  0
 11 14  1  0  0  0  0
 12 13  1  0  0  0  0
 14 15  1  0  0  0  0
 15 16  4  0  0  0  0
 15 25  4  0  0  0  0
 16 17  4  0  0  0  0
 17 18  1  0  0  0  0
 17 23  4  0  0  0  0
 18 19  1  0  0  0  0
 19 20  2  0  0  0  0
 19 21  1  0  0  0  0
 21 22  1  0  0  0  0
 22 23  1  0  0  0  0
 23 24  4  0  0  0  0
 24 25  4  0  0  0  0
 25 26  1  0  0  0  0
 27 28  4  0  0  0  0
 27 32  4  0  0  0  0
 28 29  4  0  0  0  0
 28 34  4  0  0  0  0
 29 30  4  0  0  0  0
 30 31  4  0  0  0  0
 30 33  1  0  0  0  0
 31 32  4  0  0  0  0
M  END
>  <Name_Molregno>
409197

>  <5-HT1A>
8.6

>  <5-HT1B>
5.7

>  <5-HT1D>
6.1

>  <5-HT2A>
5

>  <5-HT2C>
5.3

>  <5-HT6>
5.1

>  <5-HT7>
7.4

>  <DOPAMINE D2>
5.5

>  <DOPAMINE D3>
5.7

$$$$
409198
  Marvin  02231216192D 0   1.00000     0.00000     0

 34 38  0  0  0  0  0  0  0  0999 V2000
   -6.8888   -4.9862    0.0000 F   0  0  0  0  0  0  0  0  0
   -6.1744   -4.5737    0.0000 C   0  0  0  0  0  0  0  0  0
   -6.1744   -3.7487    0.0000 C   0  0  0  0  0  0  0  0  0
   -5.4599   -3.3362    0.0000 C   0  0  0  0  0  0  0  0  0
   -4.7454   -3.7487    0.0000 C   0  0  0  0  0  0  0  0  0
   -4.7454   -4.5737    0.0000 C   0  0  0  0  0  0  0  0  0
   -4.0309   -4.9862    0.0000 N   0  0  0  0  0  0  0  0  0
   -4.0309   -5.8112    0.0000 C   0  0  0  0  0  0  0  0  0
   -3.3165   -6.2237    0.0000 O   0  0  0  0  0  0  0  0  0
   -4.7454   -6.2237    0.0000 C   0  0  0  0  0  0  0  0  0
   -5.4599   -5.8112    0.0000 O   0  0  0  0  0  0  0  0  0
   -5.4599   -4.9862    0.0000 C   0  0  0  0  0  0  0  0  0
   -5.4599   -2.5112    0.0000 C   0  0  0  0  0  0  0  0  0
   -4.7454   -2.0987    0.0000 C   0  0  0  0  0  0  0  0  0
   -4.7454   -1.2737    0.0000 C   0  0  0  0  0  0  0  0  0
   -4.0309   -0.8612    0.0000 C   0  0  0  0  0  0  0  0  0
   -3.3165   -1.2737    0.0000 N   0  0  0  0  0  0  0  0  0
   -3.3165   -2.0987    0.0000 C   0  0  0  0  0  0  0  0  0
   -4.0309   -2.5112    0.0000 C   0  0  0  0  0  0  0  0  0
   -2.6020   -0.8612    0.0000 C   0  0  0  0  0  0  0  0  0
   -2.6020   -0.0362    0.0000 C   0  0  0  0  0  0  0  0  0
   -1.8875    0.3763    0.0000 O   0  0  0  0  0  0  0  0  0
   -1.8875    1.2013    0.0000 C   0  0  0  0  0  0  0  0  0
   -2.6020    1.6138    0.0000 C   0  0  0  0  0  0  0  0  0
   -2.6020    2.4388    0.0000 C   0  0  0  0  0  0  0  0  0
   -3.3165    2.8513    0.0000 F   0  0  0  0  0  0  0  0  0
   -1.8875    2.8513    0.0000 C   0  0  0  0  0  0  0  0  0
   -1.1731    2.4388    0.0000 C   0  0  0  0  0  0  0  0  0
   -0.4586    2.8513    0.0000 N   0  0  0  0  0  0  0  0  0
    0.2559    2.4388    0.0000 C   0  0  0  0  0  0  0  0  0
    0.2559    1.6138    0.0000 C   0  0  0  0  0  0  0  0  0
   -0.4586    1.2013    0.0000 C   0  0  0  0  0  0  0  0  0
   -1.1731    1.6138    0.0000 C   0  0  0  0  0  0  0  0  0
    0.9703    2.8513    0.0000 C   0  0  0  0  0  0  0  0  0
  1  2  1  0  0  0  0
  2  3  4  0  0  0  0
  2 12  4  0  0  0  0
  3  4  4  0  0  0  0
  4  5  4  0  0  0  0
  4 13  1  0  0  0  0
  5  6  4  0  0  0  0
  6  7  1  0  0  0  0
  6 12  4  0  0  0  0
  7  8  1  0  0  0  0
  8  9  2  0  0  0  0
  8 10  1  0  0  0  0
 10 11  1  0  0  0  0
 11 12  1  0  0  0  0
 13 14  1  0  0  0  0
 14 15  1  0  0  0  0
 14 19  1  0  0  0  0
 15 16  1  0  0  0  0
 16 17  1  0  0  0  0
 17 18  1  0  0  0  0
 17 20  1  0  0  0  0
 18 19  1  0  0  0  0
 20 21  1  0  0  0  0
 21 22  1  0  0  0  0
 22 23  1  0  0  0  0
 23 24  4  0  0  0  0
 23 33  4  0  0  0  0
 24 25  4  0  0  0  0
 25 26  1  0  0  0  0
 25 27  4  0  0  0  0
 27 28  4  0  0  0  0
 28 29  4  0  0  0  0
 28 33  4  0  0  0  0
 29 30  4  0  0  0  0
 30 31  4  0  0  0  0
 30 34  1  0  0  0  0
 31 32  4  0  0  0  0
 32 33  4  0  0  0  0
M  END
>  <Name_Molregno>
409198

>  <5-HT1A>
8.4

>  <5-HT1B>
6.5

>  <5-HT1D>
7.1

>  <5-HT2A>
5

>  <5-HT2C>
5

>  <5-HT6>
5.2

>  <5-HT7>
7.1

>  <DOPAMINE D2>
5

>  <DOPAMINE D3>
5.4

$$$$
409200
  Marvin  02231216192D 0   1.00000     0.00000     0

 34 38  0  0  0  0  0  0  0  0999 V2000
   -2.8865    0.9720    0.0000 Cl  0  0  0  0  0  0  0  0  0
   -2.1721    0.5595    0.0000 C   0  0  0  0  0  0  0  0  0
   -2.1721   -0.2655    0.0000 C   0  0  0  0  0  0  0  0  0
   -1.4576   -0.6780    0.0000 C   0  0  0  0  0  0  0  0  0
   -1.4576   -1.5030    0.0000 O   0  0  0  0  0  0  0  0  0
   -2.1721   -1.9155    0.0000 C   0  0  0  0  0  0  0  0  0
   -2.1721   -2.7405    0.0000 C   0  0  0  0  0  0  0  0  0
   -2.8865   -3.1530    0.0000 N   0  0  0  0  0  0  0  0  0
   -2.8865   -3.9780    0.0000 C   0  0  0  0  0  0  0  0  0
   -3.6010   -4.3905    0.0000 C   0  0  0  0  0  0  0  0  0
   -4.3155   -3.9780    0.0000 C   0  0  0  0  0  0  0  0  0
   -4.3155   -3.1530    0.0000 C   0  0  0  0  0  0  0  0  0
   -3.6010   -2.7405    0.0000 C   0  0  0  0  0  0  0  0  0
   -5.0299   -4.3905    0.0000 C   0  0  0  0  0  0  0  0  0
   -5.7444   -3.9780    0.0000 C   0  0  0  0  0  0  0  0  0
   -6.4589   -4.3905    0.0000 C   0  0  0  0  0  0  0  0  0
   -7.1733   -3.9780    0.0000 C   0  0  0  0  0  0  0  0  0
   -7.8878   -4.3905    0.0000 F   0  0  0  0  0  0  0  0  0
   -7.1733   -3.1530    0.0000 C   0  0  0  0  0  0  0  0  0
   -7.8878   -2.7405    0.0000 O   0  0  0  0  0  0  0  0  0
   -7.8878   -1.9155    0.0000 C   0  0  0  0  0  0  0  0  0
   -7.1733   -1.5030    0.0000 C   0  0  0  0  0  0  0  0  0
   -7.1733   -0.6780    0.0000 O   0  0  0  0  0  0  0  0  0
   -6.4589   -1.9155    0.0000 N   0  0  0  0  0  0  0  0  0
   -6.4589   -2.7405    0.0000 C   0  0  0  0  0  0  0  0  0
   -5.7444   -3.1530    0.0000 C   0  0  0  0  0  0  0  0  0
   -0.7431   -0.2655    0.0000 C   0  0  0  0  0  0  0  0  0
   -0.7431    0.5595    0.0000 C   0  0  0  0  0  0  0  0  0
   -0.0286    0.9720    0.0000 N   0  0  0  0  0  0  0  0  0
    0.6858    0.5595    0.0000 C   0  0  0  0  0  0  0  0  0
    0.6858   -0.2655    0.0000 C   0  0  0  0  0  0  0  0  0
   -0.0286   -0.6780    0.0000 C   0  0  0  0  0  0  0  0  0
    1.4003    0.9720    0.0000 C   0  0  0  0  0  0  0  0  0
   -1.4576    0.9720    0.0000 C   0  0  0  0  0  0  0  0  0
  1  2  1  0  0  0  0
  2  3  4  0  0  0  0
  2 34  4  0  0  0  0
  3  4  4  0  0  0  0
  4  5  1  0  0  0  0
  4 27  4  0  0  0  0
  5  6  1  0  0  0  0
  6  7  1  0  0  0  0
  7  8  1  0  0  0  0
  8  9  1  0  0  0  0
  8 13  1  0  0  0  0
  9 10  1  0  0  0  0
 10 11  1  0  0  0  0
 11 12  1  0  0  0  0
 11 14  1  0  0  0  0
 12 13  1  0  0  0  0
 14 15  1  0  0  0  0
 15 16  4  0  0  0  0
 15 26  4  0  0  0  0
 16 17  4  0  0  0  0
 17 18  1  0  0  0  0
 17 19  4  0  0  0  0
 19 20  1  0  0  0  0
 19 25  4  0  0  0  0
 20 21  1  0  0  0  0
 21 22  1  0  0  0  0
 22 23  2  0  0  0  0
 22 24  1  0  0  0  0
 24 25  1  0  0  0  0
 25 26  4  0  0  0  0
 27 28  4  0  0  0  0
 27 32  4  0  0  0  0
 28 29  4  0  0  0  0
 28 34  4  0  0  0  0
 29 30  4  0  0  0  0
 30 31  4  0  0  0  0
 30 33  1  0  0  0  0
 31 32  4  0  0  0  0
M  END
>  <Name_Molregno>
409200

>  <5-HT1A>
8

>  <5-HT1B>
6.2

>  <5-HT1D>
6.2

>  <5-HT2A>
5.5

>  <5-HT2C>
5.6

>  <5-HT6>
5

>  <5-HT7>
7.1

>  <DOPAMINE D2>
5.6

>  <DOPAMINE D3>
5.9

$$$$
409578
  Marvin  02231216192D 0   1.00000     0.00000     0

 25 27  0  0  0  0  0  0  0  0999 V2000
   -1.4411   -1.9516    0.0000 S   0  0  0  0  0  0  0  0  0
   -0.6161   -1.9516    0.0000 O   0  0  0  0  0  0  0  0  0
   -2.2661   -1.9516    0.0000 O   0  0  0  0  0  0  0  0  0
   -1.4411   -2.7766    0.0000 C   0  0  0  0  0  0  0  0  0
   -0.7266   -3.1891    0.0000 C   0  0  0  0  0  0  0  0  0
   -0.7266   -4.0141    0.0000 C   0  0  0  0  0  0  0  0  0
   -1.4411   -4.4266    0.0000 C   0  0  0  0  0  0  0  0  0
   -1.4411   -5.2516    0.0000 F   0  0  0  0  0  0  0  0  0
   -2.1556   -4.0141    0.0000 C   0  0  0  0  0  0  0  0  0
   -2.1556   -3.1891    0.0000 C   0  0  0  0  0  0  0  0  0
   -1.4411   -1.1266    0.0000 C   0  0  0  0  0  0  0  0  0
   -2.1556   -0.7141    0.0000 N   0  0  0  0  0  0  0  0  0
   -2.1556    0.1109    0.0000 C   0  0  0  0  0  0  0  0  0
   -1.4411    0.5234    0.0000 C   0  0  0  0  0  0  0  0  0
   -0.7266    0.1109    0.0000 C   0  0  0  0  0  0  0  0  0
   -0.7266   -0.7141    0.0000 C   0  0  0  0  0  0  0  0  0
   -1.4411    1.3484    0.0000 C   0  0  0  0  0  0  0  0  0
   -2.1556    1.7609    0.0000 C   0  0  0  0  0  0  0  0  0
   -2.1556    2.5859    0.0000 C   0  0  0  0  0  0  0  0  0
   -2.8700    2.9984    0.0000 C   0  0  0  0  0  0  0  0  0
   -2.8700    3.8234    0.0000 C   0  0  0  0  0  0  0  0  0
   -2.1556    4.2359    0.0000 C   0  0  0  0  0  0  0  0  0
   -2.1556    5.0609    0.0000 F   0  0  0  0  0  0  0  0  0
   -1.4411    3.8234    0.0000 C   0  0  0  0  0  0  0  0  0
   -1.4411    2.9984    0.0000 C   0  0  0  0  0  0  0  0  0
  1  2  2  0  0  0  0
  1  3  2  0  0  0  0
  1  4  1  0  0  0  0
  1 11  1  0  0  0  0
  4  5  4  0  0  0  0
  4 10  4  0  0  0  0
  5  6  4  0  0  0  0
  6  7  4  0  0  0  0
  7  8  1  0  0  0  0
  7  9  4  0  0  0  0
  9 10  4  0  0  0  0
 11 12  4  0  0  0  0
 11 16  4  0  0  0  0
 12 13  4  0  0  0  0
 13 14  4  0  0  0  0
 14 15  4  0  0  0  0
 14 17  1  0  0  0  0
 15 16  4  0  0  0  0
 17 18  1  0  0  0  0
 18 19  1  0  0  0  0
 19 20  4  0  0  0  0
 19 25  4  0  0  0  0
 20 21  4  0  0  0  0
 21 22  4  0  0  0  0
 22 23  1  0  0  0  0
 22 24  4  0  0  0  0
 24 25  4  0  0  0  0
M  END
>  <Name_Molregno>
409578

>  <5-HT2A>
7.72

>  <5-HT2C>
5.4

>  <DOPAMINE D2>
6

$$$$
409580
  Marvin  02231216192D 0   1.00000     0.00000     0

 25 27  0  0  0  0  0  0  0  0999 V2000
   -1.4411   -1.9516    0.0000 S   0  0  0  0  0  0  0  0  0
   -0.6161   -1.9516    0.0000 O   0  0  0  0  0  0  0  0  0
   -2.2661   -1.9516    0.0000 O   0  0  0  0  0  0  0  0  0
   -1.4411   -2.7766    0.0000 C   0  0  0  0  0  0  0  0  0
   -0.7266   -3.1891    0.0000 C   0  0  0  0  0  0  0  0  0
   -0.7266   -4.0141    0.0000 C   0  0  0  0  0  0  0  0  0
   -1.4411   -4.4266    0.0000 C   0  0  0  0  0  0  0  0  0
   -1.4411   -5.2516    0.0000 F   0  0  0  0  0  0  0  0  0
   -2.1556   -4.0141    0.0000 C   0  0  0  0  0  0  0  0  0
   -2.1556   -3.1891    0.0000 C   0  0  0  0  0  0  0  0  0
   -1.4411   -1.1266    0.0000 C   0  0  0  0  0  0  0  0  0
   -2.1556   -0.7141    0.0000 C   0  0  0  0  0  0  0  0  0
   -2.1556    0.1109    0.0000 C   0  0  0  0  0  0  0  0  0
   -1.4411    0.5234    0.0000 C   0  0  0  0  0  0  0  0  0
   -0.7266    0.1109    0.0000 N   0  0  0  0  0  0  0  0  0
   -0.7266   -0.7141    0.0000 C   0  0  0  0  0  0  0  0  0
   -1.4411    1.3484    0.0000 C   0  0  0  0  0  0  0  0  0
   -2.1556    1.7609    0.0000 C   0  0  0  0  0  0  0  0  0
   -2.1556    2.5859    0.0000 C   0  0  0  0  0  0  0  0  0
   -2.8700    2.9984    0.0000 C   0  0  0  0  0  0  0  0  0
   -2.8700    3.8234    0.0000 C   0  0  0  0  0  0  0  0  0
   -2.1556    4.2359    0.0000 C   0  0  0  0  0  0  0  0  0
   -2.1556    5.0609    0.0000 F   0  0  0  0  0  0  0  0  0
   -1.4411    3.8234    0.0000 C   0  0  0  0  0  0  0  0  0
   -1.4411    2.9984    0.0000 C   0  0  0  0  0  0  0  0  0
  1  2  2  0  0  0  0
  1  3  2  0  0  0  0
  1  4  1  0  0  0  0
  1 11  1  0  0  0  0
  4  5  4  0  0  0  0
  4 10  4  0  0  0  0
  5  6  4  0  0  0  0
  6  7  4  0  0  0  0
  7  8  1  0  0  0  0
  7  9  4  0  0  0  0
  9 10  4  0  0  0  0
 11 12  4  0  0  0  0
 11 16  4  0  0  0  0
 12 13  4  0  0  0  0
 13 14  4  0  0  0  0
 14 15  4  0  0  0  0
 14 17  1  0  0  0  0
 15 16  4  0  0  0  0
 17 18  1  0  0  0  0
 18 19  1  0  0  0  0
 19 20  4  0  0  0  0
 19 25  4  0  0  0  0
 20 21  4  0  0  0  0
 21 22  4  0  0  0  0
 22 23  1  0  0  0  0
 22 24  4  0  0  0  0
 24 25  4  0  0  0  0
M  END
>  <Name_Molregno>
409580

>  <5-HT2A>
7.64

>  <5-HT2C>
5.57

>  <DOPAMINE D2>
6

$$$$
409581
  Marvin  02231216192D 0   1.00000     0.00000     0

 25 27  0  0  0  0  0  0  0  0999 V2000
   -1.4856   -1.9579    0.0000 S   0  0  0  0  0  0  0  0  0
   -0.6606   -1.9579    0.0000 O   0  0  0  0  0  0  0  0  0
   -2.3106   -1.9579    0.0000 O   0  0  0  0  0  0  0  0  0
   -1.4856   -2.7829    0.0000 C   0  0  0  0  0  0  0  0  0
   -0.7711   -3.1954    0.0000 C   0  0  0  0  0  0  0  0  0
   -0.7711   -4.0204    0.0000 C   0  0  0  0  0  0  0  0  0
   -1.4856   -4.4329    0.0000 C   0  0  0  0  0  0  0  0  0
   -1.4856   -5.2579    0.0000 F   0  0  0  0  0  0  0  0  0
   -2.2000   -4.0204    0.0000 C   0  0  0  0  0  0  0  0  0
   -2.2000   -3.1954    0.0000 C   0  0  0  0  0  0  0  0  0
   -1.4856   -1.1329    0.0000 C   0  0  0  0  0  0  0  0  0
   -2.2000   -0.7204    0.0000 N   0  0  0  0  0  0  0  0  0
   -2.2000    0.1046    0.0000 C   0  0  0  0  0  0  0  0  0
   -1.4856    0.5171    0.0000 C   0  0  0  0  0  0  0  0  0
   -0.7711    0.1046    0.0000 C   0  0  0  0  0  0  0  0  0
   -0.7711   -0.7204    0.0000 C   0  0  0  0  0  0  0  0  0
   -1.4856    1.3421    0.0000 C   0  0  0  0  0  0  0  0  0
   -2.2000    1.7546    0.0000 C   0  0  0  0  0  0  0  0  0
   -2.2000    2.5796    0.0000 C   0  0  0  0  0  0  0  0  0
   -2.9145    2.9921    0.0000 C   0  0  0  0  0  0  0  0  0
   -2.9145    3.8171    0.0000 C   0  0  0  0  0  0  0  0  0
   -2.2000    4.2296    0.0000 C   0  0  0  0  0  0  0  0  0
   -2.2000    5.0546    0.0000 F   0  0  0  0  0  0  0  0  0
   -1.4856    3.8171    0.0000 C   0  0  0  0  0  0  0  0  0
   -1.4856    2.9921    0.0000 C   0  0  0  0  0  0  0  0  0
  1  2  2  0  0  0  0
  1  3  2  0  0  0  0
  1  4  1  0  0  0  0
  1 11  1  0  0  0  0
  4  5  4  0  0  0  0
  4 10  4  0  0  0  0
  5  6  4  0  0  0  0
  6  7  4  0  0  0  0
  7  8  1  0  0  0  0
  7  9  4  0  0  0  0
  9 10  4  0  0  0  0
 11 12  4  0  0  0  0
 11 16  4  0  0  0  0
 12 13  4  0  0  0  0
 13 14  4  0  0  0  0
 14 15  4  0  0  0  0
 14 17  1  0  0  0  0
 15 16  4  0  0  0  0
 17 18  2  0  0  0  0
 18 19  1  0  0  0  0
 19 20  4  0  0  0  0
 19 25  4  0  0  0  0
 20 21  4  0  0  0  0
 21 22  4  0  0  0  0
 22 23  1  0  0  0  0
 22 24  4  0  0  0  0
 24 25  4  0  0  0  0
M  END
>  <Name_Molregno>
409581

>  <5-HT2A>
7.55

>  <5-HT2C>
5.4

>  <DOPAMINE D2>
6

$$$$
409582
  Marvin  02231216192D 0   1.00000     0.00000     0

 25 27  0  0  0  0  0  0  0  0999 V2000
   -1.4856   -1.9579    0.0000 S   0  0  0  0  0  0  0  0  0
   -0.6606   -1.9579    0.0000 O   0  0  0  0  0  0  0  0  0
   -2.3106   -1.9579    0.0000 O   0  0  0  0  0  0  0  0  0
   -1.4856   -2.7829    0.0000 C   0  0  0  0  0  0  0  0  0
   -0.7711   -3.1954    0.0000 C   0  0  0  0  0  0  0  0  0
   -0.7711   -4.0204    0.0000 C   0  0  0  0  0  0  0  0  0
   -1.4856   -4.4329    0.0000 C   0  0  0  0  0  0  0  0  0
   -1.4856   -5.2579    0.0000 F   0  0  0  0  0  0  0  0  0
   -2.2000   -4.0204    0.0000 C   0  0  0  0  0  0  0  0  0
   -2.2000   -3.1954    0.0000 C   0  0  0  0  0  0  0  0  0
   -1.4856   -1.1329    0.0000 C   0  0  0  0  0  0  0  0  0
   -2.2000   -0.7204    0.0000 C   0  0  0  0  0  0  0  0  0
   -2.2000    0.1046    0.0000 C   0  0  0  0  0  0  0  0  0
   -1.4856    0.5171    0.0000 C   0  0  0  0  0  0  0  0  0
   -0.7711    0.1046    0.0000 N   0  0  0  0  0  0  0  0  0
   -0.7711   -0.7204    0.0000 C   0  0  0  0  0  0  0  0  0
   -1.4856    1.3421    0.0000 C   0  0  0  0  0  0  0  0  0
   -2.2000    1.7546    0.0000 C   0  0  0  0  0  0  0  0  0
   -2.2000    2.5796    0.0000 C   0  0  0  0  0  0  0  0  0
   -2.9145    2.9921    0.0000 C   0  0  0  0  0  0  0  0  0
   -2.9145    3.8171    0.0000 C   0  0  0  0  0  0  0  0  0
   -2.2000    4.2296    0.0000 C   0  0  0  0  0  0  0  0  0
   -2.2000    5.0546    0.0000 F   0  0  0  0  0  0  0  0  0
   -1.4856    3.8171    0.0000 C   0  0  0  0  0  0  0  0  0
   -1.4856    2.9921    0.0000 C   0  0  0  0  0  0  0  0  0
  1  2  2  0  0  0  0
  1  3  2  0  0  0  0
  1  4  1  0  0  0  0
  1 11  1  0  0  0  0
  4  5  4  0  0  0  0
  4 10  4  0  0  0  0
  5  6  4  0  0  0  0
  6  7  4  0  0  0  0
  7  8  1  0  0  0  0
  7  9  4  0  0  0  0
  9 10  4  0  0  0  0
 11 12  4  0  0  0  0
 11 16  4  0  0  0  0
 12 13  4  0  0  0  0
 13 14  4  0  0  0  0
 14 15  4  0  0  0  0
 14 17  1  0  0  0  0
 15 16  4  0  0  0  0
 17 18  2  0  0  0  0
 18 19  1  0  0  0  0
 19 20  4  0  0  0  0
 19 25  4  0  0  0  0
 20 21  4  0  0  0  0
 21 22  4  0  0  0  0
 22 23  1  0  0  0  0
 22 24  4  0  0  0  0
 24 25  4  0  0  0  0
M  END
>  <Name_Molregno>
409582

>  <5-HT2A>
7.77

>  <5-HT2C>
5.4

>  <DOPAMINE D2>
6

$$$$
409583
  Marvin  02231216192D 0   1.00000     0.00000     0

 25 27  0  0  0  0  0  0  0  0999 V2000
   -1.5787   -1.9082    0.0000 S   0  0  0  0  0  0  0  0  0
   -0.7537   -1.9082    0.0000 O   0  0  0  0  0  0  0  0  0
   -2.4037   -1.9082    0.0000 O   0  0  0  0  0  0  0  0  0
   -1.5787   -2.7332    0.0000 C   0  0  0  0  0  0  0  0  0
   -0.8642   -3.1457    0.0000 C   0  0  0  0  0  0  0  0  0
   -0.8642   -3.9707    0.0000 C   0  0  0  0  0  0  0  0  0
   -0.1497   -4.3832    0.0000 F   0  0  0  0  0  0  0  0  0
   -1.5787   -4.3832    0.0000 C   0  0  0  0  0  0  0  0  0
   -2.2931   -3.9707    0.0000 C   0  0  0  0  0  0  0  0  0
   -2.2931   -3.1457    0.0000 C   0  0  0  0  0  0  0  0  0
   -1.5787   -1.0832    0.0000 C   0  0  0  0  0  0  0  0  0
   -2.2931   -0.6707    0.0000 C   0  0  0  0  0  0  0  0  0
   -2.2931    0.1543    0.0000 C   0  0  0  0  0  0  0  0  0
   -1.5787    0.5668    0.0000 C   0  0  0  0  0  0  0  0  0
   -0.8642    0.1543    0.0000 N   0  0  0  0  0  0  0  0  0
   -0.8642   -0.6707    0.0000 C   0  0  0  0  0  0  0  0  0
   -1.5787    1.3918    0.0000 C   0  0  0  0  0  0  0  0  0
   -2.2931    1.8043    0.0000 C   0  0  0  0  0  0  0  0  0
   -2.2931    2.6293    0.0000 C   0  0  0  0  0  0  0  0  0
   -3.0076    3.0418    0.0000 C   0  0  0  0  0  0  0  0  0
   -3.0076    3.8668    0.0000 C   0  0  0  0  0  0  0  0  0
   -2.2931    4.2793    0.0000 C   0  0  0  0  0  0  0  0  0
   -2.2931    5.1043    0.0000 F   0  0  0  0  0  0  0  0  0
   -1.5787    3.8668    0.0000 C   0  0  0  0  0  0  0  0  0
   -1.5787    3.0418    0.0000 C   0  0  0  0  0  0  0  0  0
  1  2  2  0  0  0  0
  1  3  2  0  0  0  0
  1  4  1  0  0  0  0
  1 11  1  0  0  0  0
  4  5  4  0  0  0  0
  4 10  4  0  0  0  0
  5  6  4  0  0  0  0
  6  7  1  0  0  0  0
  6  8  4  0  0  0  0
  8  9  4  0  0  0  0
  9 10  4  0  0  0  0
 11 12  4  0  0  0  0
 11 16  4  0  0  0  0
 12 13  4  0  0  0  0
 13 14  4  0  0  0  0
 14 15  4  0  0  0  0
 14 17  1  0  0  0  0
 15 16  4  0  0  0  0
 17 18  2  0  0  0  0
 18 19  1  0  0  0  0
 19 20  4  0  0  0  0
 19 25  4  0  0  0  0
 20 21  4  0  0  0  0
 21 22  4  0  0  0  0
 22 23  1  0  0  0  0
 22 24  4  0  0  0  0
 24 25  4  0  0  0  0
M  END
>  <Name_Molregno>
409583

>  <5-HT2A>
8.02

>  <5-HT2C>
5.4

>  <DOPAMINE D2>
6

$$$$
409584
  Marvin  02231216192D 0   1.00000     0.00000     0

 25 27  0  0  0  0  0  0  0  0999 V2000
   -1.5295   -1.9839    0.0000 S   0  0  0  0  0  0  0  0  0
   -0.7045   -1.9839    0.0000 O   0  0  0  0  0  0  0  0  0
   -2.3545   -1.9839    0.0000 O   0  0  0  0  0  0  0  0  0
   -1.5295   -2.8089    0.0000 C   0  0  0  0  0  0  0  0  0
   -0.8150   -3.2214    0.0000 C   0  0  0  0  0  0  0  0  0
   -0.8150   -4.0464    0.0000 C   0  0  0  0  0  0  0  0  0
   -1.5295   -4.4589    0.0000 C   0  0  0  0  0  0  0  0  0
   -2.2439   -4.0464    0.0000 C   0  0  0  0  0  0  0  0  0
   -2.2439   -3.2214    0.0000 C   0  0  0  0  0  0  0  0  0
   -2.9584   -2.8089    0.0000 F   0  0  0  0  0  0  0  0  0
   -1.5295   -1.1589    0.0000 C   0  0  0  0  0  0  0  0  0
   -2.2439   -0.7464    0.0000 C   0  0  0  0  0  0  0  0  0
   -2.2439    0.0786    0.0000 C   0  0  0  0  0  0  0  0  0
   -1.5295    0.4911    0.0000 C   0  0  0  0  0  0  0  0  0
   -0.8150    0.0786    0.0000 N   0  0  0  0  0  0  0  0  0
   -0.8150   -0.7464    0.0000 C   0  0  0  0  0  0  0  0  0
   -1.5295    1.3161    0.0000 C   0  0  0  0  0  0  0  0  0
   -2.2439    1.7286    0.0000 C   0  0  0  0  0  0  0  0  0
   -2.2439    2.5536    0.0000 C   0  0  0  0  0  0  0  0  0
   -2.9584    2.9661    0.0000 C   0  0  0  0  0  0  0  0  0
   -2.9584    3.7911    0.0000 C   0  0  0  0  0  0  0  0  0
   -2.2439    4.2036    0.0000 C   0  0  0  0  0  0  0  0  0
   -2.2439    5.0286    0.0000 F   0  0  0  0  0  0  0  0  0
   -1.5295    3.7911    0.0000 C   0  0  0  0  0  0  0  0  0
   -1.5295    2.9661    0.0000 C   0  0  0  0  0  0  0  0  0
  1  2  2  0  0  0  0
  1  3  2  0  0  0  0
  1  4  1  0  0  0  0
  1 11  1  0  0  0  0
  4  5  4  0  0  0  0
  4  9  4  0  0  0  0
  5  6  4  0  0  0  0
  6  7  4  0  0  0  0
  7  8  4  0  0  0  0
  8  9  4  0  0  0  0
  9 10  1  0  0  0  0
 11 12  4  0  0  0  0
 11 16  4  0  0  0  0
 12 13  4  0  0  0  0
 13 14  4  0  0  0  0
 14 15  4  0  0  0  0
 14 17  1  0  0  0  0
 15 16  4  0  0  0  0
 17 18  2  0  0  0  0
 18 19  1  0  0  0  0
 19 20  4  0  0  0  0
 19 25  4  0  0  0  0
 20 21  4  0  0  0  0
 21 22  4  0  0  0  0
 22 23  1  0  0  0  0
 22 24  4  0  0  0  0
 24 25  4  0  0  0  0
M  END
>  <Name_Molregno>
409584

>  <5-HT2A>
8.27

>  <5-HT2C>
5.4

>  <DOPAMINE D2>
6

$$$$
409585
  Marvin  02231216192D 0   1.00000     0.00000     0

 24 26  0  0  0  0  0  0  0  0999 V2000
   -1.6867   -2.1644    0.0000 S   0  0  0  0  0  0  0  0  0
   -0.8617   -2.1644    0.0000 O   0  0  0  0  0  0  0  0  0
   -2.5117   -2.1644    0.0000 O   0  0  0  0  0  0  0  0  0
   -1.6867   -2.9894    0.0000 C   0  0  0  0  0  0  0  0  0
   -0.9722   -3.4019    0.0000 C   0  0  0  0  0  0  0  0  0
   -0.9722   -4.2269    0.0000 C   0  0  0  0  0  0  0  0  0
   -1.6867   -4.6394    0.0000 C   0  0  0  0  0  0  0  0  0
   -2.4011   -4.2269    0.0000 C   0  0  0  0  0  0  0  0  0
   -2.4011   -3.4019    0.0000 C   0  0  0  0  0  0  0  0  0
   -1.6867   -1.3394    0.0000 C   0  0  0  0  0  0  0  0  0
   -2.4011   -0.9269    0.0000 C   0  0  0  0  0  0  0  0  0
   -2.4011   -0.1019    0.0000 C   0  0  0  0  0  0  0  0  0
   -1.6867    0.3106    0.0000 C   0  0  0  0  0  0  0  0  0
   -0.9722   -0.1019    0.0000 N   0  0  0  0  0  0  0  0  0
   -0.9722   -0.9269    0.0000 C   0  0  0  0  0  0  0  0  0
   -1.6867    1.1356    0.0000 C   0  0  0  0  0  0  0  0  0
   -2.4011    1.5481    0.0000 C   0  0  0  0  0  0  0  0  0
   -2.4011    2.3731    0.0000 C   0  0  0  0  0  0  0  0  0
   -3.1156    2.7856    0.0000 C   0  0  0  0  0  0  0  0  0
   -3.1156    3.6106    0.0000 C   0  0  0  0  0  0  0  0  0
   -2.4011    4.0231    0.0000 C   0  0  0  0  0  0  0  0  0
   -2.4011    4.8481    0.0000 F   0  0  0  0  0  0  0  0  0
   -1.6867    3.6106    0.0000 C   0  0  0  0  0  0  0  0  0
   -1.6867    2.7856    0.0000 C   0  0  0  0  0  0  0  0  0
  1  2  2  0  0  0  0
  1  3  2  0  0  0  0
  1  4  1  0  0  0  0
  1 10  1  0  0  0  0
  4  5  4  0  0  0  0
  4  9  4  0  0  0  0
  5  6  4  0  0  0  0
  6  7  4  0  0  0  0
  7  8  4  0  0  0  0
  8  9  4  0  0  0  0
 10 11  4  0  0  0  0
 10 15  4  0  0  0  0
 11 12  4  0  0  0  0
 12 13  4  0  0  0  0
 13 14  4  0  0  0  0
 13 16  1  0  0  0  0
 14 15  4  0  0  0  0
 16 17  2  0  0  0  0
 17 18  1  0  0  0  0
 18 19  4  0  0  0  0
 18 24  4  0  0  0  0
 19 20  4  0  0  0  0
 20 21  4  0  0  0  0
 21 22  1  0  0  0  0
 21 23  4  0  0  0  0
 23 24  4  0  0  0  0
M  END
>  <Name_Molregno>
409585

>  <5-HT2A>
8.13

>  <5-HT2C>
5.4

>  <DOPAMINE D2>
6

$$$$
409586
  Marvin  02231216192D 0   1.00000     0.00000     0

 25 27  0  0  0  0  0  0  0  0999 V2000
   -1.4868   -1.4833    0.0000 S   0  0  0  0  0  0  0  0  0
   -0.6618   -1.4833    0.0000 O   0  0  0  0  0  0  0  0  0
   -2.3118   -1.4833    0.0000 O   0  0  0  0  0  0  0  0  0
   -1.4868   -2.3083    0.0000 C   0  0  0  0  0  0  0  0  0
   -0.7724   -2.7208    0.0000 C   0  0  0  0  0  0  0  0  0
   -0.7724   -3.5458    0.0000 C   0  0  0  0  0  0  0  0  0
   -1.4868   -3.9583    0.0000 C   0  0  0  0  0  0  0  0  0
   -2.2013   -3.5458    0.0000 C   0  0  0  0  0  0  0  0  0
   -2.2013   -2.7208    0.0000 C   0  0  0  0  0  0  0  0  0
   -2.9158   -2.3083    0.0000 F   0  0  0  0  0  0  0  0  0
   -1.4868   -0.6583    0.0000 C   0  0  0  0  0  0  0  0  0
   -2.2013   -0.2458    0.0000 C   0  0  0  0  0  0  0  0  0
   -2.2013    0.5792    0.0000 C   0  0  0  0  0  0  0  0  0
   -1.4868    0.9917    0.0000 C   0  0  0  0  0  0  0  0  0
   -0.7724    0.5792    0.0000 N   0  0  0  0  0  0  0  0  0
   -0.7724   -0.2458    0.0000 C   0  0  0  0  0  0  0  0  0
   -1.4868    1.8167    0.0000 C   0  0  0  0  0  0  0  0  0
   -2.2013    2.2292    0.0000 C   0  0  0  0  0  0  0  0  0
   -2.2013    3.0542    0.0000 C   0  0  0  0  0  0  0  0  0
   -2.9158    3.4667    0.0000 C   0  0  0  0  0  0  0  0  0
   -2.9158    4.2917    0.0000 C   0  0  0  0  0  0  0  0  0
   -2.2013    4.7042    0.0000 C   0  0  0  0  0  0  0  0  0
   -1.4868    4.2917    0.0000 C   0  0  0  0  0  0  0  0  0
   -1.4868    3.4667    0.0000 C   0  0  0  0  0  0  0  0  0
   -0.7724    3.0542    0.0000 F   0  0  0  0  0  0  0  0  0
  1  2  2  0  0  0  0
  1  3  2  0  0  0  0
  1  4  1  0  0  0  0
  1 11  1  0  0  0  0
  4  5  4  0  0  0  0
  4  9  4  0  0  0  0
  5  6  4  0  0  0  0
  6  7  4  0  0  0  0
  7  8  4  0  0  0  0
  8  9  4  0  0  0  0
  9 10  1  0  0  0  0
 11 12  4  0  0  0  0
 11 16  4  0  0  0  0
 12 13  4  0  0  0  0
 13 14  4  0  0  0  0
 14 15  4  0  0  0  0
 14 17  1  0  0  0  0
 15 16  4  0  0  0  0
 17 18  2  0  0  0  0
 18 19  1  0  0  0  0
 19 20  4  0  0  0  0
 19 24  4  0  0  0  0
 20 21  4  0  0  0  0
 21 22  4  0  0  0  0
 22 23  4  0  0  0  0
 23 24  4  0  0  0  0
 24 25  1  0  0  0  0
M  END
>  <Name_Molregno>
409586

>  <5-HT2A>
8.59

>  <5-HT2C>
5.4

>  <DOPAMINE D2>
5.7

$$$$
409587
  Marvin  02231216192D 0   1.00000     0.00000     0

 25 27  0  0  0  0  0  0  0  0999 V2000
   -1.4399   -1.5604    0.0000 S   0  0  0  0  0  0  0  0  0
   -0.6149   -1.5604    0.0000 O   0  0  0  0  0  0  0  0  0
   -2.2649   -1.5604    0.0000 O   0  0  0  0  0  0  0  0  0
   -1.4399   -2.3854    0.0000 C   0  0  0  0  0  0  0  0  0
   -0.7254   -2.7979    0.0000 C   0  0  0  0  0  0  0  0  0
   -0.7254   -3.6229    0.0000 C   0  0  0  0  0  0  0  0  0
   -1.4399   -4.0354    0.0000 C   0  0  0  0  0  0  0  0  0
   -2.1544   -3.6229    0.0000 C   0  0  0  0  0  0  0  0  0
   -2.1544   -2.7979    0.0000 C   0  0  0  0  0  0  0  0  0
   -2.8689   -2.3854    0.0000 F   0  0  0  0  0  0  0  0  0
   -1.4399   -0.7354    0.0000 C   0  0  0  0  0  0  0  0  0
   -2.1544   -0.3229    0.0000 C   0  0  0  0  0  0  0  0  0
   -2.1544    0.5021    0.0000 C   0  0  0  0  0  0  0  0  0
   -1.4399    0.9146    0.0000 C   0  0  0  0  0  0  0  0  0
   -0.7254    0.5021    0.0000 N   0  0  0  0  0  0  0  0  0
   -0.7254   -0.3229    0.0000 C   0  0  0  0  0  0  0  0  0
   -1.4399    1.7396    0.0000 C   0  0  0  0  0  0  0  0  0
   -2.1544    2.1521    0.0000 C   0  0  0  0  0  0  0  0  0
   -2.1544    2.9771    0.0000 C   0  0  0  0  0  0  0  0  0
   -2.8689    3.3896    0.0000 C   0  0  0  0  0  0  0  0  0
   -2.8689    4.2146    0.0000 C   0  0  0  0  0  0  0  0  0
   -3.5833    4.6271    0.0000 F   0  0  0  0  0  0  0  0  0
   -2.1544    4.6271    0.0000 C   0  0  0  0  0  0  0  0  0
   -1.4399    4.2146    0.0000 C   0  0  0  0  0  0  0  0  0
   -1.4399    3.3896    0.0000 C   0  0  0  0  0  0  0  0  0
  1  2  2  0  0  0  0
  1  3  2  0  0  0  0
  1  4  1  0  0  0  0
  1 11  1  0  0  0  0
  4  5  4  0  0  0  0
  4  9  4  0  0  0  0
  5  6  4  0  0  0  0
  6  7  4  0  0  0  0
  7  8  4  0  0  0  0
  8  9  4  0  0  0  0
  9 10  1  0  0  0  0
 11 12  4  0  0  0  0
 11 16  4  0  0  0  0
 12 13  4  0  0  0  0
 13 14  4  0  0  0  0
 14 15  4  0  0  0  0
 14 17  1  0  0  0  0
 15 16  4  0  0  0  0
 17 18  2  0  0  0  0
 18 19  1  0  0  0  0
 19 20  4  0  0  0  0
 19 25  4  0  0  0  0
 20 21  4  0  0  0  0
 21 22  1  0  0  0  0
 21 23  4  0  0  0  0
 23 24  4  0  0  0  0
 24 25  4  0  0  0  0
M  END
>  <Name_Molregno>
409587

>  <5-HT2A>
6.82

>  <5-HT2C>
5.4

>  <DOPAMINE D2>
5.7

$$$$
409588
  Marvin  02231216192D 0   1.00000     0.00000     0

 24 26  0  0  0  0  0  0  0  0999 V2000
   -1.3312   -1.4571    0.0000 S   0  0  0  0  0  0  0  0  0
   -0.5062   -1.4571    0.0000 O   0  0  0  0  0  0  0  0  0
   -2.1562   -1.4571    0.0000 O   0  0  0  0  0  0  0  0  0
   -1.3312   -2.2821    0.0000 C   0  0  0  0  0  0  0  0  0
   -0.6167   -2.6946    0.0000 C   0  0  0  0  0  0  0  0  0
   -0.6167   -3.5196    0.0000 C   0  0  0  0  0  0  0  0  0
   -1.3312   -3.9321    0.0000 C   0  0  0  0  0  0  0  0  0
   -2.0457   -3.5196    0.0000 C   0  0  0  0  0  0  0  0  0
   -2.0457   -2.6946    0.0000 C   0  0  0  0  0  0  0  0  0
   -2.7601   -2.2821    0.0000 F   0  0  0  0  0  0  0  0  0
   -1.3312   -0.6321    0.0000 C   0  0  0  0  0  0  0  0  0
   -2.0457   -0.2196    0.0000 C   0  0  0  0  0  0  0  0  0
   -2.0457    0.6054    0.0000 C   0  0  0  0  0  0  0  0  0
   -1.3312    1.0179    0.0000 C   0  0  0  0  0  0  0  0  0
   -0.6167    0.6054    0.0000 N   0  0  0  0  0  0  0  0  0
   -0.6167   -0.2196    0.0000 C   0  0  0  0  0  0  0  0  0
   -1.3312    1.8429    0.0000 C   0  0  0  0  0  0  0  0  0
   -2.0457    2.2554    0.0000 C   0  0  0  0  0  0  0  0  0
   -2.0457    3.0804    0.0000 C   0  0  0  0  0  0  0  0  0
   -2.7601    3.4929    0.0000 C   0  0  0  0  0  0  0  0  0
   -2.7601    4.3179    0.0000 C   0  0  0  0  0  0  0  0  0
   -2.0457    4.7304    0.0000 N   0  0  0  0  0  0  0  0  0
   -1.3312    4.3179    0.0000 C   0  0  0  0  0  0  0  0  0
   -1.3312    3.4929    0.0000 C   0  0  0  0  0  0  0  0  0
  1  2  2  0  0  0  0
  1  3  2  0  0  0  0
  1  4  1  0  0  0  0
  1 11  1  0  0  0  0
  4  5  4  0  0  0  0
  4  9  4  0  0  0  0
  5  6  4  0  0  0  0
  6  7  4  0  0  0  0
  7  8  4  0  0  0  0
  8  9  4  0  0  0  0
  9 10  1  0  0  0  0
 11 12  4  0  0  0  0
 11 16  4  0  0  0  0
 12 13  4  0  0  0  0
 13 14  4  0  0  0  0
 14 15  4  0  0  0  0
 14 17  1  0  0  0  0
 15 16  4  0  0  0  0
 17 18  2  0  0  0  0
 18 19  1  0  0  0  0
 19 20  4  0  0  0  0
 19 24  4  0  0  0  0
 20 21  4  0  0  0  0
 21 22  4  0  0  0  0
 22 23  4  0  0  0  0
 23 24  4  0  0  0  0
M  END
>  <Name_Molregno>
409588

>  <5-HT2A>
6.1

>  <5-HT2C>
5.4

>  <DOPAMINE D2>
5.7

$$$$
409589
  Marvin  02231216192D 0   1.00000     0.00000     0

 26 28  0  0  0  0  0  0  0  0999 V2000
   -1.6739   -1.6851    0.0000 S   0  0  0  0  0  0  0  0  0
   -0.8489   -1.6851    0.0000 O   0  0  0  0  0  0  0  0  0
   -2.4989   -1.6851    0.0000 O   0  0  0  0  0  0  0  0  0
   -1.6739   -2.5101    0.0000 C   0  0  0  0  0  0  0  0  0
   -0.9595   -2.9226    0.0000 C   0  0  0  0  0  0  0  0  0
   -0.9595   -3.7476    0.0000 C   0  0  0  0  0  0  0  0  0
   -1.6739   -4.1601    0.0000 C   0  0  0  0  0  0  0  0  0
   -2.3884   -3.7476    0.0000 C   0  0  0  0  0  0  0  0  0
   -2.3884   -2.9226    0.0000 C   0  0  0  0  0  0  0  0  0
   -3.1029   -2.5101    0.0000 F   0  0  0  0  0  0  0  0  0
   -1.6739   -0.8601    0.0000 C   0  0  0  0  0  0  0  0  0
   -2.3884   -0.4476    0.0000 C   0  0  0  0  0  0  0  0  0
   -2.3884    0.3774    0.0000 C   0  0  0  0  0  0  0  0  0
   -1.6739    0.7899    0.0000 C   0  0  0  0  0  0  0  0  0
   -0.9595    0.3774    0.0000 N   0  0  0  0  0  0  0  0  0
   -0.9595   -0.4476    0.0000 C   0  0  0  0  0  0  0  0  0
   -1.6739    1.6149    0.0000 C   0  0  0  0  0  0  0  0  0
   -2.3884    2.0274    0.0000 C   0  0  0  0  0  0  0  0  0
   -2.3884    2.8524    0.0000 C   0  0  0  0  0  0  0  0  0
   -3.1029    3.2649    0.0000 C   0  0  0  0  0  0  0  0  0
   -3.1029    4.0899    0.0000 C   0  0  0  0  0  0  0  0  0
   -2.3884    4.5024    0.0000 C   0  0  0  0  0  0  0  0  0
   -2.3884    5.3274    0.0000 F   0  0  0  0  0  0  0  0  0
   -1.6739    4.0899    0.0000 C   0  0  0  0  0  0  0  0  0
   -1.6739    3.2649    0.0000 C   0  0  0  0  0  0  0  0  0
   -0.9595    2.8524    0.0000 F   0  0  0  0  0  0  0  0  0
  1  2  2  0  0  0  0
  1  3  2  0  0  0  0
  1  4  1  0  0  0  0
  1 11  1  0  0  0  0
  4  5  4  0  0  0  0
  4  9  4  0  0  0  0
  5  6  4  0  0  0  0
  6  7  4  0  0  0  0
  7  8  4  0  0  0  0
  8  9  4  0  0  0  0
  9 10  1  0  0  0  0
 11 12  4  0  0  0  0
 11 16  4  0  0  0  0
 12 13  4  0  0  0  0
 13 14  4  0  0  0  0
 14 15  4  0  0  0  0
 14 17  1  0  0  0  0
 15 16  4  0  0  0  0
 17 18  2  0  0  0  0
 18 19  1  0  0  0  0
 19 20  4  0  0  0  0
 19 25  4  0  0  0  0
 20 21  4  0  0  0  0
 21 22  4  0  0  0  0
 22 23  1  0  0  0  0
 22 24  4  0  0  0  0
 24 25  4  0  0  0  0
 25 26  1  0  0  0  0
M  END
>  <Name_Molregno>
409589

>  <5-HT2A>
8.59

>  <5-HT2C>
6.39

>  <DOPAMINE D2>
6

$$$$
409590
  Marvin  02231216192D 0   1.00000     0.00000     0

 26 28  0  0  0  0  0  0  0  0999 V2000
   -0.0570   -0.0739    0.0000 Cl  0  0  0  0  0  0  0  0  0
   -0.0570   -0.8989    0.0000 C   0  0  0  0  0  0  0  0  0
    0.6574   -1.3114    0.0000 C   0  0  0  0  0  0  0  0  0
    0.6574   -2.1364    0.0000 C   0  0  0  0  0  0  0  0  0
    1.3719   -2.5489    0.0000 F   0  0  0  0  0  0  0  0  0
   -0.0570   -2.5489    0.0000 C   0  0  0  0  0  0  0  0  0
   -0.7715   -2.1364    0.0000 C   0  0  0  0  0  0  0  0  0
   -0.7715   -1.3114    0.0000 C   0  0  0  0  0  0  0  0  0
   -1.4860   -0.8989    0.0000 C   0  0  0  0  0  0  0  0  0
   -2.2004   -1.3114    0.0000 C   0  0  0  0  0  0  0  0  0
   -2.9149   -0.8989    0.0000 C   0  0  0  0  0  0  0  0  0
   -3.6294   -1.3114    0.0000 N   0  0  0  0  0  0  0  0  0
   -4.3439   -0.8989    0.0000 C   0  0  0  0  0  0  0  0  0
   -4.3439   -0.0739    0.0000 C   0  0  0  0  0  0  0  0  0
   -5.0583    0.3386    0.0000 S   0  0  0  0  0  0  0  0  0
   -4.6458    1.0530    0.0000 O   0  0  0  0  0  0  0  0  0
   -5.4708   -0.3759    0.0000 O   0  0  0  0  0  0  0  0  0
   -5.7728    0.7511    0.0000 C   0  0  0  0  0  0  0  0  0
   -6.4873    0.3386    0.0000 C   0  0  0  0  0  0  0  0  0
   -7.2017    0.7511    0.0000 C   0  0  0  0  0  0  0  0  0
   -7.2017    1.5761    0.0000 C   0  0  0  0  0  0  0  0  0
   -6.4873    1.9886    0.0000 C   0  0  0  0  0  0  0  0  0
   -5.7728    1.5761    0.0000 C   0  0  0  0  0  0  0  0  0
   -5.0583    1.9886    0.0000 F   0  0  0  0  0  0  0  0  0
   -3.6294    0.3386    0.0000 C   0  0  0  0  0  0  0  0  0
   -2.9149   -0.0739    0.0000 C   0  0  0  0  0  0  0  0  0
  1  2  1  0  0  0  0
  2  3  4  0  0  0  0
  2  8  4  0  0  0  0
  3  4  4  0  0  0  0
  4  5  1  0  0  0  0
  4  6  4  0  0  0  0
  6  7  4  0  0  0  0
  7  8  4  0  0  0  0
  8  9  1  0  0  0  0
  9 10  2  0  0  0  0
 10 11  1  0  0  0  0
 11 12  4  0  0  0  0
 11 26  4  0  0  0  0
 12 13  4  0  0  0  0
 13 14  4  0  0  0  0
 14 15  1  0  0  0  0
 14 25  4  0  0  0  0
 15 16  2  0  0  0  0
 15 17  2  0  0  0  0
 15 18  1  0  0  0  0
 18 19  4  0  0  0  0
 18 23  4  0  0  0  0
 19 20  4  0  0  0  0
 20 21  4  0  0  0  0
 21 22  4  0  0  0  0
 22 23  4  0  0  0  0
 23 24  1  0  0  0  0
 25 26  4  0  0  0  0
M  END
>  <Name_Molregno>
409590

>  <5-HT2A>
8.74

>  <5-HT2C>
7.19

>  <DOPAMINE D2>
5.7

$$$$
409591
  Marvin  02231216192D 0   1.00000     0.00000     0

 26 28  0  0  0  0  0  0  0  0999 V2000
   -1.6241   -1.6912    0.0000 S   0  0  0  0  0  0  0  0  0
   -0.7991   -1.6912    0.0000 O   0  0  0  0  0  0  0  0  0
   -2.4491   -1.6912    0.0000 O   0  0  0  0  0  0  0  0  0
   -1.6241   -2.5162    0.0000 C   0  0  0  0  0  0  0  0  0
   -0.9096   -2.9287    0.0000 C   0  0  0  0  0  0  0  0  0
   -0.9096   -3.7537    0.0000 C   0  0  0  0  0  0  0  0  0
   -1.6241   -4.1662    0.0000 C   0  0  0  0  0  0  0  0  0
   -2.3385   -3.7537    0.0000 C   0  0  0  0  0  0  0  0  0
   -2.3385   -2.9287    0.0000 C   0  0  0  0  0  0  0  0  0
   -3.0530   -2.5162    0.0000 F   0  0  0  0  0  0  0  0  0
   -1.6241   -0.8662    0.0000 C   0  0  0  0  0  0  0  0  0
   -2.3385   -0.4537    0.0000 C   0  0  0  0  0  0  0  0  0
   -2.3385    0.3713    0.0000 C   0  0  0  0  0  0  0  0  0
   -1.6241    0.7838    0.0000 C   0  0  0  0  0  0  0  0  0
   -0.9096    0.3713    0.0000 N   0  0  0  0  0  0  0  0  0
   -0.9096   -0.4537    0.0000 C   0  0  0  0  0  0  0  0  0
   -1.6241    1.6088    0.0000 C   0  0  0  0  0  0  0  0  0
   -2.3385    2.0213    0.0000 C   0  0  0  0  0  0  0  0  0
   -2.3385    2.8463    0.0000 C   0  0  0  0  0  0  0  0  0
   -3.0530    3.2588    0.0000 C   0  0  0  0  0  0  0  0  0
   -3.0530    4.0838    0.0000 C   0  0  0  0  0  0  0  0  0
   -2.3385    4.4963    0.0000 C   0  0  0  0  0  0  0  0  0
   -2.3385    5.3213    0.0000 F   0  0  0  0  0  0  0  0  0
   -1.6241    4.0838    0.0000 C   0  0  0  0  0  0  0  0  0
   -1.6241    3.2588    0.0000 C   0  0  0  0  0  0  0  0  0
   -0.9096    2.8463    0.0000 C   0  0  0  0  0  0  0  0  0
  1  2  2  0  0  0  0
  1  3  2  0  0  0  0
  1  4  1  0  0  0  0
  1 11  1  0  0  0  0
  4  5  4  0  0  0  0
  4  9  4  0  0  0  0
  5  6  4  0  0  0  0
  6  7  4  0  0  0  0
  7  8  4  0  0  0  0
  8  9  4  0  0  0  0
  9 10  1  0  0  0  0
 11 12  4  0  0  0  0
 11 16  4  0  0  0  0
 12 13  4  0  0  0  0
 13 14  4  0  0  0  0
 14 15  4  0  0  0  0
 14 17  1  0  0  0  0
 15 16  4  0  0  0  0
 17 18  2  0  0  0  0
 18 19  1  0  0  0  0
 19 20  4  0  0  0  0
 19 25  4  0  0  0  0
 20 21  4  0  0  0  0
 21 22  4  0  0  0  0
 22 23  1  0  0  0  0
 22 24  4  0  0  0  0
 24 25  4  0  0  0  0
 25 26  1  0  0  0  0
M  END
>  <Name_Molregno>
409591

>  <5-HT2A>
8.09

>  <5-HT2C>
6.66

>  <DOPAMINE D2>
5.7

$$$$
409592
  Marvin  02231216192D 0   1.00000     0.00000     0

 27 29  0  0  0  0  0  0  0  0999 V2000
   -1.8158   -1.6555    0.0000 S   0  0  0  0  0  0  0  0  0
   -0.9908   -1.6555    0.0000 O   0  0  0  0  0  0  0  0  0
   -2.6408   -1.6555    0.0000 O   0  0  0  0  0  0  0  0  0
   -1.8158   -2.4805    0.0000 C   0  0  0  0  0  0  0  0  0
   -1.1014   -2.8930    0.0000 C   0  0  0  0  0  0  0  0  0
   -1.1014   -3.7180    0.0000 C   0  0  0  0  0  0  0  0  0
   -1.8158   -4.1305    0.0000 C   0  0  0  0  0  0  0  0  0
   -2.5303   -3.7180    0.0000 C   0  0  0  0  0  0  0  0  0
   -2.5303   -2.8930    0.0000 C   0  0  0  0  0  0  0  0  0
   -3.2448   -2.4805    0.0000 F   0  0  0  0  0  0  0  0  0
   -1.8158   -0.8305    0.0000 C   0  0  0  0  0  0  0  0  0
   -2.5303   -0.4180    0.0000 C   0  0  0  0  0  0  0  0  0
   -2.5303    0.4070    0.0000 C   0  0  0  0  0  0  0  0  0
   -1.8158    0.8195    0.0000 C   0  0  0  0  0  0  0  0  0
   -1.1014    0.4070    0.0000 N   0  0  0  0  0  0  0  0  0
   -1.1014   -0.4180    0.0000 C   0  0  0  0  0  0  0  0  0
   -1.8158    1.6445    0.0000 C   0  0  0  0  0  0  0  0  0
   -2.5303    2.0570    0.0000 C   0  0  0  0  0  0  0  0  0
   -2.5303    2.8820    0.0000 C   0  0  0  0  0  0  0  0  0
   -3.2448    3.2945    0.0000 C   0  0  0  0  0  0  0  0  0
   -3.2448    4.1195    0.0000 C   0  0  0  0  0  0  0  0  0
   -2.5303    4.5320    0.0000 C   0  0  0  0  0  0  0  0  0
   -2.5303    5.3570    0.0000 F   0  0  0  0  0  0  0  0  0
   -1.8158    4.1195    0.0000 C   0  0  0  0  0  0  0  0  0
   -1.8158    3.2945    0.0000 C   0  0  0  0  0  0  0  0  0
   -1.1014    2.8820    0.0000 C   0  0  0  0  0  0  0  0  0
   -0.3869    2.4695    0.0000 N   0  0  0  0  0  0  0  0  0
  1  2  2  0  0  0  0
  1  3  2  0  0  0  0
  1  4  1  0  0  0  0
  1 11  1  0  0  0  0
  4  5  4  0  0  0  0
  4  9  4  0  0  0  0
  5  6  4  0  0  0  0
  6  7  4  0  0  0  0
  7  8  4  0  0  0  0
  8  9  4  0  0  0  0
  9 10  1  0  0  0  0
 11 12  4  0  0  0  0
 11 16  4  0  0  0  0
 12 13  4  0  0  0  0
 13 14  4  0  0  0  0
 14 15  4  0  0  0  0
 14 17  1  0  0  0  0
 15 16  4  0  0  0  0
 17 18  2  0  0  0  0
 18 19  1  0  0  0  0
 19 20  4  0  0  0  0
 19 25  4  0  0  0  0
 20 21  4  0  0  0  0
 21 22  4  0  0  0  0
 22 23  1  0  0  0  0
 22 24  4  0  0  0  0
 24 25  4  0  0  0  0
 25 26  1  0  0  0  0
 26 27  3  0  0  0  0
M  END
>  <Name_Molregno>
409592

>  <5-HT2A>
8

>  <5-HT2C>
7.72

>  <DOPAMINE D2>
5.7

$$$$
409593
  Marvin  02231216192D 0   1.00000     0.00000     0

 26 28  0  0  0  0  0  0  0  0999 V2000
   -1.6739   -1.6851    0.0000 S   0  0  0  0  0  0  0  0  0
   -0.8489   -1.6851    0.0000 O   0  0  0  0  0  0  0  0  0
   -2.4989   -1.6851    0.0000 O   0  0  0  0  0  0  0  0  0
   -1.6739   -2.5101    0.0000 C   0  0  0  0  0  0  0  0  0
   -0.9595   -2.9226    0.0000 C   0  0  0  0  0  0  0  0  0
   -0.9595   -3.7476    0.0000 C   0  0  0  0  0  0  0  0  0
   -1.6739   -4.1601    0.0000 C   0  0  0  0  0  0  0  0  0
   -2.3884   -3.7476    0.0000 C   0  0  0  0  0  0  0  0  0
   -2.3884   -2.9226    0.0000 C   0  0  0  0  0  0  0  0  0
   -3.1029   -2.5101    0.0000 F   0  0  0  0  0  0  0  0  0
   -1.6739   -0.8601    0.0000 C   0  0  0  0  0  0  0  0  0
   -2.3884   -0.4476    0.0000 C   0  0  0  0  0  0  0  0  0
   -2.3884    0.3774    0.0000 C   0  0  0  0  0  0  0  0  0
   -1.6739    0.7899    0.0000 C   0  0  0  0  0  0  0  0  0
   -0.9595    0.3774    0.0000 N   0  0  0  0  0  0  0  0  0
   -0.9595   -0.4476    0.0000 C   0  0  0  0  0  0  0  0  0
   -1.6739    1.6149    0.0000 C   0  0  0  0  0  0  0  0  0
   -2.3884    2.0274    0.0000 C   0  0  0  0  0  0  0  0  0
   -2.3884    2.8524    0.0000 C   0  0  0  0  0  0  0  0  0
   -3.1029    3.2649    0.0000 C   0  0  0  0  0  0  0  0  0
   -3.1029    4.0899    0.0000 C   0  0  0  0  0  0  0  0  0
   -2.3884    4.5024    0.0000 C   0  0  0  0  0  0  0  0  0
   -2.3884    5.3274    0.0000 F   0  0  0  0  0  0  0  0  0
   -1.6739    4.0899    0.0000 C   0  0  0  0  0  0  0  0  0
   -1.6739    3.2649    0.0000 C   0  0  0  0  0  0  0  0  0
   -0.9595    2.8524    0.0000 O   0  0  0  0  0  0  0  0  0
  1  2  2  0  0  0  0
  1  3  2  0  0  0  0
  1  4  1  0  0  0  0
  1 11  1  0  0  0  0
  4  5  4  0  0  0  0
  4  9  4  0  0  0  0
  5  6  4  0  0  0  0
  6  7  4  0  0  0  0
  7  8  4  0  0  0  0
  8  9  4  0  0  0  0
  9 10  1  0  0  0  0
 11 12  4  0  0  0  0
 11 16  4  0  0  0  0
 12 13  4  0  0  0  0
 13 14  4  0  0  0  0
 14 15  4  0  0  0  0
 14 17  1  0  0  0  0
 15 16  4  0  0  0  0
 17 18  2  0  0  0  0
 18 19  1  0  0  0  0
 19 20  4  0  0  0  0
 19 25  4  0  0  0  0
 20 21  4  0  0  0  0
 21 22  4  0  0  0  0
 22 23  1  0  0  0  0
 22 24  4  0  0  0  0
 24 25  4  0  0  0  0
 25 26  1  0  0  0  0
M  END
>  <Name_Molregno>
409593

>  <5-HT2A>
9.72

>  <5-HT2C>
6.24

>  <DOPAMINE D2>
5.7

$$$$
409594
  Marvin  02231216192D 0   1.00000     0.00000     0

 25 27  0  0  0  0  0  0  0  0999 V2000
   -1.4868   -1.4833    0.0000 S   0  0  0  0  0  0  0  0  0
   -0.6618   -1.4833    0.0000 O   0  0  0  0  0  0  0  0  0
   -2.3118   -1.4833    0.0000 O   0  0  0  0  0  0  0  0  0
   -1.4868   -2.3083    0.0000 C   0  0  0  0  0  0  0  0  0
   -0.7724   -2.7208    0.0000 C   0  0  0  0  0  0  0  0  0
   -0.7724   -3.5458    0.0000 C   0  0  0  0  0  0  0  0  0
   -1.4868   -3.9583    0.0000 C   0  0  0  0  0  0  0  0  0
   -2.2013   -3.5458    0.0000 C   0  0  0  0  0  0  0  0  0
   -2.2013   -2.7208    0.0000 C   0  0  0  0  0  0  0  0  0
   -2.9158   -2.3083    0.0000 F   0  0  0  0  0  0  0  0  0
   -1.4868   -0.6583    0.0000 C   0  0  0  0  0  0  0  0  0
   -2.2013   -0.2458    0.0000 C   0  0  0  0  0  0  0  0  0
   -2.2013    0.5792    0.0000 C   0  0  0  0  0  0  0  0  0
   -1.4868    0.9917    0.0000 C   0  0  0  0  0  0  0  0  0
   -0.7724    0.5792    0.0000 N   0  0  0  0  0  0  0  0  0
   -0.7724   -0.2458    0.0000 C   0  0  0  0  0  0  0  0  0
   -1.4868    1.8167    0.0000 C   0  0  0  0  0  0  0  0  0
   -2.2013    2.2292    0.0000 C   0  0  0  0  0  0  0  0  0
   -2.2013    3.0542    0.0000 C   0  0  0  0  0  0  0  0  0
   -2.9158    3.4667    0.0000 C   0  0  0  0  0  0  0  0  0
   -2.9158    4.2917    0.0000 C   0  0  0  0  0  0  0  0  0
   -2.2013    4.7042    0.0000 C   0  0  0  0  0  0  0  0  0
   -1.4868    4.2917    0.0000 C   0  0  0  0  0  0  0  0  0
   -1.4868    3.4667    0.0000 C   0  0  0  0  0  0  0  0  0
   -0.7724    3.0542    0.0000 O   0  0  0  0  0  0  0  0  0
  1  2  2  0  0  0  0
  1  3  2  0  0  0  0
  1  4  1  0  0  0  0
  1 11  1  0  0  0  0
  4  5  4  0  0  0  0
  4  9  4  0  0  0  0
  5  6  4  0  0  0  0
  6  7  4  0  0  0  0
  7  8  4  0  0  0  0
  8  9  4  0  0  0  0
  9 10  1  0  0  0  0
 11 12  4  0  0  0  0
 11 16  4  0  0  0  0
 12 13  4  0  0  0  0
 13 14  4  0  0  0  0
 14 15  4  0  0  0  0
 14 17  1  0  0  0  0
 15 16  4  0  0  0  0
 17 18  2  0  0  0  0
 18 19  1  0  0  0  0
 19 20  4  0  0  0  0
 19 24  4  0  0  0  0
 20 21  4  0  0  0  0
 21 22  4  0  0  0  0
 22 23  4  0  0  0  0
 23 24  4  0  0  0  0
 24 25  1  0  0  0  0
M  END
>  <Name_Molregno>
409594

>  <5-HT2A>
8.44

>  <5-HT2C>
6.09

>  <DOPAMINE D2>
5.7

$$$$
409595
  Marvin  02231216192D 0   1.00000     0.00000     0

 27 29  0  0  0  0  0  0  0  0999 V2000
   -1.7956   -2.3572    0.0000 S   0  0  0  0  0  0  0  0  0
   -0.9706   -2.3572    0.0000 O   0  0  0  0  0  0  0  0  0
   -2.6206   -2.3572    0.0000 O   0  0  0  0  0  0  0  0  0
   -1.7956   -3.1822    0.0000 C   0  0  0  0  0  0  0  0  0
   -1.0811   -3.5947    0.0000 C   0  0  0  0  0  0  0  0  0
   -1.0811   -4.4197    0.0000 C   0  0  0  0  0  0  0  0  0
   -1.7956   -4.8322    0.0000 C   0  0  0  0  0  0  0  0  0
   -2.5100   -4.4197    0.0000 C   0  0  0  0  0  0  0  0  0
   -2.5100   -3.5947    0.0000 C   0  0  0  0  0  0  0  0  0
   -3.2245   -3.1822    0.0000 F   0  0  0  0  0  0  0  0  0
   -1.7956   -1.5322    0.0000 C   0  0  0  0  0  0  0  0  0
   -2.5100   -1.1197    0.0000 C   0  0  0  0  0  0  0  0  0
   -2.5100   -0.2947    0.0000 C   0  0  0  0  0  0  0  0  0
   -1.7956    0.1178    0.0000 C   0  0  0  0  0  0  0  0  0
   -1.0811   -0.2947    0.0000 N   0  0  0  0  0  0  0  0  0
   -1.0811   -1.1197    0.0000 C   0  0  0  0  0  0  0  0  0
   -1.7956    0.9428    0.0000 C   0  0  0  0  0  0  0  0  0
   -2.5100    1.3553    0.0000 C   0  0  0  0  0  0  0  0  0
   -2.5100    2.1803    0.0000 C   0  0  0  0  0  0  0  0  0
   -3.2245    2.5928    0.0000 C   0  0  0  0  0  0  0  0  0
   -3.2245    3.4178    0.0000 C   0  0  0  0  0  0  0  0  0
   -2.5100    3.8303    0.0000 C   0  0  0  0  0  0  0  0  0
   -2.5100    4.6553    0.0000 F   0  0  0  0  0  0  0  0  0
   -1.7956    3.4178    0.0000 C   0  0  0  0  0  0  0  0  0
   -1.7956    2.5928    0.0000 C   0  0  0  0  0  0  0  0  0
   -1.0811    2.1803    0.0000 O   0  0  0  0  0  0  0  0  0
   -0.3666    2.5928    0.0000 C   0  0  0  0  0  0  0  0  0
  1  2  2  0  0  0  0
  1  3  2  0  0  0  0
  1  4  1  0  0  0  0
  1 11  1  0  0  0  0
  4  5  4  0  0  0  0
  4  9  4  0  0  0  0
  5  6  4  0  0  0  0
  6  7  4  0  0  0  0
  7  8  4  0  0  0  0
  8  9  4  0  0  0  0
  9 10  1  0  0  0  0
 11 12  4  0  0  0  0
 11 16  4  0  0  0  0
 12 13  4  0  0  0  0
 13 14  4  0  0  0  0
 14 15  4  0  0  0  0
 14 17  1  0  0  0  0
 15 16  4  0  0  0  0
 17 18  2  0  0  0  0
 18 19  1  0  0  0  0
 19 20  4  0  0  0  0
 19 25  4  0  0  0  0
 20 21  4  0  0  0  0
 21 22  4  0  0  0  0
 22 23  1  0  0  0  0
 22 24  4  0  0  0  0
 24 25  4  0  0  0  0
 25 26  1  0  0  0  0
 26 27  1  0  0  0  0
M  END
>  <Name_Molregno>
409595

>  <5-HT2A>
7.19

>  <5-HT2C>
5.85

>  <DOPAMINE D2>
5.7

$$$$
409596
  Marvin  02231216192D 0   1.00000     0.00000     0

 24 26  0  0  0  0  0  0  0  0999 V2000
    0.2288   -0.8433    0.0000 S   0  0  0  0  0  0  0  0  0
   -0.4857   -0.4308    0.0000 O   0  0  0  0  0  0  0  0  0
    0.2288   -1.6683    0.0000 C   0  0  0  0  0  0  0  0  0
    0.9432   -2.0808    0.0000 C   0  0  0  0  0  0  0  0  0
    0.9432   -2.9058    0.0000 C   0  0  0  0  0  0  0  0  0
    0.2288   -3.3183    0.0000 C   0  0  0  0  0  0  0  0  0
   -0.4857   -2.9058    0.0000 C   0  0  0  0  0  0  0  0  0
   -0.4857   -2.0808    0.0000 C   0  0  0  0  0  0  0  0  0
   -1.2002   -1.6683    0.0000 F   0  0  0  0  0  0  0  0  0
    0.9432   -0.4308    0.0000 C   0  0  0  0  0  0  0  0  0
    0.9432    0.3942    0.0000 C   0  0  0  0  0  0  0  0  0
    1.6577    0.8067    0.0000 C   0  0  0  0  0  0  0  0  0
    2.3722    0.3942    0.0000 C   0  0  0  0  0  0  0  0  0
    2.3722   -0.4308    0.0000 N   0  0  0  0  0  0  0  0  0
    1.6577   -0.8433    0.0000 C   0  0  0  0  0  0  0  0  0
    3.0867    0.8067    0.0000 C   0  0  0  0  0  0  0  0  0
    3.0867    1.6317    0.0000 C   0  0  0  0  0  0  0  0  0
    3.8011    2.0442    0.0000 C   0  0  0  0  0  0  0  0  0
    3.8011    2.8692    0.0000 C   0  0  0  0  0  0  0  0  0
    4.5156    3.2817    0.0000 C   0  0  0  0  0  0  0  0  0
    5.2301    2.8692    0.0000 C   0  0  0  0  0  0  0  0  0
    5.9445    3.2817    0.0000 F   0  0  0  0  0  0  0  0  0
    5.2301    2.0442    0.0000 C   0  0  0  0  0  0  0  0  0
    4.5156    1.6317    0.0000 C   0  0  0  0  0  0  0  0  0
  1  2  2  0  0  0  0
  1  3  1  0  0  0  0
  1 10  1  0  0  0  0
  3  4  4  0  0  0  0
  3  8  4  0  0  0  0
  4  5  4  0  0  0  0
  5  6  4  0  0  0  0
  6  7  4  0  0  0  0
  7  8  4  0  0  0  0
  8  9  1  0  0  0  0
 10 11  4  0  0  0  0
 10 15  4  0  0  0  0
 11 12  4  0  0  0  0
 12 13  4  0  0  0  0
 13 14  4  0  0  0  0
 13 16  1  0  0  0  0
 14 15  4  0  0  0  0
 16 17  2  0  0  0  0
 17 18  1  0  0  0  0
 18 19  4  0  0  0  0
 18 24  4  0  0  0  0
 19 20  4  0  0  0  0
 20 21  4  0  0  0  0
 21 22  1  0  0  0  0
 21 23  4  0  0  0  0
 23 24  4  0  0  0  0
M  END
>  <Name_Molregno>
409596

>  <5-HT2A>
8.34

>  <5-HT2C>
6.8

>  <DOPAMINE D2>
5.7

$$$$
409597
  Marvin  02231216192D 0   1.00000     0.00000     0

 25 27  0  0  0  0  0  0  0  0999 V2000
    0.2301   -0.9826    0.0000 S   0  0  0  0  0  0  0  0  0
   -0.4843   -0.5701    0.0000 O   0  0  0  0  0  0  0  0  0
    0.2301   -1.8076    0.0000 C   0  0  0  0  0  0  0  0  0
    0.9446   -2.2201    0.0000 C   0  0  0  0  0  0  0  0  0
    0.9446   -3.0451    0.0000 C   0  0  0  0  0  0  0  0  0
    0.2301   -3.4576    0.0000 C   0  0  0  0  0  0  0  0  0
   -0.4843   -3.0451    0.0000 C   0  0  0  0  0  0  0  0  0
   -0.4843   -2.2201    0.0000 C   0  0  0  0  0  0  0  0  0
   -1.1988   -1.8076    0.0000 F   0  0  0  0  0  0  0  0  0
    0.9446   -0.5701    0.0000 C   0  0  0  0  0  0  0  0  0
    0.9446    0.2549    0.0000 C   0  0  0  0  0  0  0  0  0
    1.6591    0.6674    0.0000 C   0  0  0  0  0  0  0  0  0
    2.3735    0.2549    0.0000 C   0  0  0  0  0  0  0  0  0
    2.3735   -0.5701    0.0000 N   0  0  0  0  0  0  0  0  0
    1.6591   -0.9826    0.0000 C   0  0  0  0  0  0  0  0  0
    3.0880    0.6674    0.0000 C   0  0  0  0  0  0  0  0  0
    3.0880    1.4924    0.0000 C   0  0  0  0  0  0  0  0  0
    3.8025    1.9049    0.0000 C   0  0  0  0  0  0  0  0  0
    3.8025    2.7299    0.0000 C   0  0  0  0  0  0  0  0  0
    4.5170    3.1424    0.0000 C   0  0  0  0  0  0  0  0  0
    5.2314    2.7299    0.0000 C   0  0  0  0  0  0  0  0  0
    5.9459    3.1424    0.0000 F   0  0  0  0  0  0  0  0  0
    5.2314    1.9049    0.0000 C   0  0  0  0  0  0  0  0  0
    4.5170    1.4924    0.0000 C   0  0  0  0  0  0  0  0  0
    4.5170    0.6674    0.0000 F   0  0  0  0  0  0  0  0  0
  1  2  2  0  0  0  0
  1  3  1  0  0  0  0
  1 10  1  0  0  0  0
  3  4  4  0  0  0  0
  3  8  4  0  0  0  0
  4  5  4  0  0  0  0
  5  6  4  0  0  0  0
  6  7  4  0  0  0  0
  7  8  4  0  0  0  0
  8  9  1  0  0  0  0
 10 11  4  0  0  0  0
 10 15  4  0  0  0  0
 11 12  4  0  0  0  0
 12 13  4  0  0  0  0
 13 14  4  0  0  0  0
 13 16  1  0  0  0  0
 14 15  4  0  0  0  0
 16 17  2  0  0  0  0
 17 18  1  0  0  0  0
 18 19  4  0  0  0  0
 18 24  4  0  0  0  0
 19 20  4  0  0  0  0
 20 21  4  0  0  0  0
 21 22  1  0  0  0  0
 21 23  4  0  0  0  0
 23 24  4  0  0  0  0
 24 25  1  0  0  0  0
M  END
>  <Name_Molregno>
409597

>  <5-HT2A>
8.46

>  <5-HT2C>
7.37

>  <DOPAMINE D2>
5.7

$$$$
409598
  Marvin  02231216192D 0   1.00000     0.00000     0

 23 25  0  0  0  0  0  0  0  0999 V2000
    0.2494   -0.9416    0.0000 S   0  0  0  0  0  0  0  0  0
   -0.4651   -0.5291    0.0000 O   0  0  0  0  0  0  0  0  0
    0.2494   -1.7666    0.0000 C   0  0  0  0  0  0  0  0  0
    0.9639   -2.1791    0.0000 C   0  0  0  0  0  0  0  0  0
    0.9639   -3.0041    0.0000 C   0  0  0  0  0  0  0  0  0
    0.2494   -3.4166    0.0000 C   0  0  0  0  0  0  0  0  0
   -0.4651   -3.0041    0.0000 C   0  0  0  0  0  0  0  0  0
   -0.4651   -2.1791    0.0000 C   0  0  0  0  0  0  0  0  0
    0.9639   -0.5291    0.0000 C   0  0  0  0  0  0  0  0  0
    0.9639    0.2959    0.0000 C   0  0  0  0  0  0  0  0  0
    1.6783    0.7084    0.0000 C   0  0  0  0  0  0  0  0  0
    2.3928    0.2959    0.0000 C   0  0  0  0  0  0  0  0  0
    2.3928   -0.5291    0.0000 N   0  0  0  0  0  0  0  0  0
    1.6783   -0.9416    0.0000 C   0  0  0  0  0  0  0  0  0
    3.1073    0.7084    0.0000 C   0  0  0  0  0  0  0  0  0
    3.1073    1.5334    0.0000 C   0  0  0  0  0  0  0  0  0
    3.8218    1.9459    0.0000 C   0  0  0  0  0  0  0  0  0
    3.8218    2.7709    0.0000 C   0  0  0  0  0  0  0  0  0
    4.5362    3.1834    0.0000 C   0  0  0  0  0  0  0  0  0
    5.2507    2.7709    0.0000 C   0  0  0  0  0  0  0  0  0
    5.9652    3.1834    0.0000 F   0  0  0  0  0  0  0  0  0
    5.2507    1.9459    0.0000 C   0  0  0  0  0  0  0  0  0
    4.5362    1.5334    0.0000 C   0  0  0  0  0  0  0  0  0
  1  2  2  0  0  0  0
  1  3  1  0  0  0  0
  1  9  1  0  0  0  0
  3  4  4  0  0  0  0
  3  8  4  0  0  0  0
  4  5  4  0  0  0  0
  5  6  4  0  0  0  0
  6  7  4  0  0  0  0
  7  8  4  0  0  0  0
  9 10  4  0  0  0  0
  9 14  4  0  0  0  0
 10 11  4  0  0  0  0
 11 12  4  0  0  0  0
 12 13  4  0  0  0  0
 12 15  1  0  0  0  0
 13 14  4  0  0  0  0
 15 16  2  0  0  0  0
 16 17  1  0  0  0  0
 17 18  4  0  0  0  0
 17 23  4  0  0  0  0
 18 19  4  0  0  0  0
 19 20  4  0  0  0  0
 20 21  1  0  0  0  0
 20 22  4  0  0  0  0
 22 23  4  0  0  0  0
M  END
>  <Name_Molregno>
409598

>  <5-HT2A>
8.11

>  <5-HT2C>
6.7

>  <DOPAMINE D2>
5.7

$$$$
409599
  Marvin  02231216192D 0   1.00000     0.00000     0

 24 26  0  0  0  0  0  0  0  0999 V2000
    0.2490   -1.0446    0.0000 S   0  0  0  0  0  0  0  0  0
   -0.4655   -0.6321    0.0000 O   0  0  0  0  0  0  0  0  0
    0.2490   -1.8696    0.0000 C   0  0  0  0  0  0  0  0  0
    0.9635   -2.2821    0.0000 C   0  0  0  0  0  0  0  0  0
    0.9635   -3.1071    0.0000 C   0  0  0  0  0  0  0  0  0
    0.2490   -3.5196    0.0000 C   0  0  0  0  0  0  0  0  0
   -0.4655   -3.1071    0.0000 C   0  0  0  0  0  0  0  0  0
   -0.4655   -2.2821    0.0000 C   0  0  0  0  0  0  0  0  0
    0.9635   -0.6321    0.0000 C   0  0  0  0  0  0  0  0  0
    0.9635    0.1929    0.0000 C   0  0  0  0  0  0  0  0  0
    1.6779    0.6054    0.0000 C   0  0  0  0  0  0  0  0  0
    2.3924    0.1929    0.0000 C   0  0  0  0  0  0  0  0  0
    2.3924   -0.6321    0.0000 N   0  0  0  0  0  0  0  0  0
    1.6779   -1.0446    0.0000 C   0  0  0  0  0  0  0  0  0
    3.1069    0.6054    0.0000 C   0  0  0  0  0  0  0  0  0
    3.1069    1.4304    0.0000 C   0  0  0  0  0  0  0  0  0
    3.8213    1.8429    0.0000 C   0  0  0  0  0  0  0  0  0
    3.8213    2.6679    0.0000 C   0  0  0  0  0  0  0  0  0
    4.5358    3.0804    0.0000 C   0  0  0  0  0  0  0  0  0
    5.2503    2.6679    0.0000 C   0  0  0  0  0  0  0  0  0
    5.9648    3.0804    0.0000 F   0  0  0  0  0  0  0  0  0
    5.2503    1.8429    0.0000 C   0  0  0  0  0  0  0  0  0
    4.5358    1.4304    0.0000 C   0  0  0  0  0  0  0  0  0
    4.5358    0.6054    0.0000 F   0  0  0  0  0  0  0  0  0
  1  2  2  0  0  0  0
  1  3  1  0  0  0  0
  1  9  1  0  0  0  0
  3  4  4  0  0  0  0
  3  8  4  0  0  0  0
  4  5  4  0  0  0  0
  5  6  4  0  0  0  0
  6  7  4  0  0  0  0
  7  8  4  0  0  0  0
  9 10  4  0  0  0  0
  9 14  4  0  0  0  0
 10 11  4  0  0  0  0
 11 12  4  0  0  0  0
 12 13  4  0  0  0  0
 12 15  1  0  0  0  0
 13 14  4  0  0  0  0
 15 16  2  0  0  0  0
 16 17  1  0  0  0  0
 17 18  4  0  0  0  0
 17 23  4  0  0  0  0
 18 19  4  0  0  0  0
 19 20  4  0  0  0  0
 20 21  1  0  0  0  0
 20 22  4  0  0  0  0
 22 23  4  0  0  0  0
 23 24  1  0  0  0  0
M  END
>  <Name_Molregno>
409599

>  <5-HT2A>
8.59

>  <5-HT2C>
6.91

>  <DOPAMINE D2>
5.7

$$$$
412536
  Marvin  02231216192D 0   1.00000     0.00000     0

 26 29  0  0  1  0  0  0  0  0999 V2000
    9.2715    1.8322    0.0000 F   0  0  0  0  0  0  0  0  0
    8.5570    1.4197    0.0000 C   0  0  0  0  0  0  0  0  0
    8.5570    0.5947    0.0000 C   0  0  0  0  0  0  0  0  0
    7.8425    0.1822    0.0000 C   0  0  0  0  0  0  0  0  0
    7.1280    0.5947    0.0000 C   0  0  0  0  0  0  0  0  0
    7.1280    1.4197    0.0000 C   0  0  0  0  0  0  0  0  0
    7.8425    1.8322    0.0000 C   0  0  0  0  0  0  0  0  0
    6.4136    0.1822    0.0000 C   0  0  0  0  0  0  0  0  0
    6.4136   -0.6428    0.0000 O   0  0  0  0  0  0  0  0  0
    5.6991    0.5947    0.0000 C   0  0  0  0  0  0  0  0  0
    4.9846    0.1822    0.0000 C   0  0  0  0  0  0  0  0  0
    4.2702    0.5947    0.0000 C   0  0  0  0  0  0  0  0  0
    4.2702    1.4197    0.0000 N   0  0  0  0  0  0  0  0  0
    4.9846    1.8322    0.0000 C   0  0  0  0  0  0  0  0  0
    5.6991    1.4197    0.0000 C   0  0  0  0  0  0  0  0  0
    3.5557    1.8322    0.0000 C   0  0  0  0  0  0  0  0  0
    2.8412    1.4197    0.0000 C   0  0  0  0  0  0  0  0  0
    2.8412    0.5947    0.0000 C   0  0  0  0  0  0  0  0  0
    2.1267    0.1822    0.0000 C   0  0  0  0  0  0  0  0  0
    2.1267   -0.6428    0.0000 O   0  0  0  0  0  0  0  0  0
    1.4123    0.5947    0.0000 C   0  0  0  0  0  0  0  0  0
    1.4123    1.4197    0.0000 C   0  0  0  0  0  0  0  0  0
    0.6277    1.6746    0.0000 N   0  0  0  0  0  0  0  0  0
    0.1427    1.0072    0.0000 N   0  0  0  0  0  0  0  0  0
    0.6277    0.3397    0.0000 C   0  0  0  0  0  0  0  0  0
    2.1267    1.8322    0.0000 C   0  0  0  0  0  0  0  0  0
  1  2  1  0  0  0  0
  2  3  4  0  0  0  0
  2  7  4  0  0  0  0
  3  4  4  0  0  0  0
  4  5  4  0  0  0  0
  5  6  4  0  0  0  0
  5  8  1  0  0  0  0
  6  7  4  0  0  0  0
  8  9  2  0  0  0  0
  8 10  1  0  0  0  0
 10 11  1  0  0  0  0
 10 15  1  0  0  0  0
 11 12  1  0  0  0  0
 12 13  1  0  0  0  0
 13 14  1  0  0  0  0
 13 16  1  0  0  0  0
 14 15  1  0  0  0  0
 16 17  1  0  0  0  0
 17 18  1  0  0  0  0
 17 26  1  0  0  0  0
 18 19  1  0  0  0  0
 19 20  2  0  0  0  0
 19 21  1  0  0  0  0
 21 22  4  0  0  0  0
 21 25  4  0  0  0  0
 22 23  4  0  0  0  0
 22 26  1  0  0  0  0
 23 24  4  0  0  0  0
 24 25  4  0  0  0  0
M  STY  1   1 DAT
M  SAL   1  1  23
M  SDT   1 MRV_IMPLICIT_H                                        
M  SDD   1     0.0000    0.0000    DR    ALL  0       0  
M  SED   1 IMPL_H1
M  END
>  <Name_Molregno>
412536

>  <5-HT2A>
7.37

>  <5-HT2C>
5

>  <DOPAMINE D2>
6.4

$$$$
412537
  Marvin  02231216192D 0   1.00000     0.00000     0

 27 31  0  0  1  0  0  0  0  0999 V2000
    9.5871   -0.2799    0.0000 F   0  0  0  0  0  0  0  0  0
    8.7801   -0.4514    0.0000 C   0  0  0  0  0  0  0  0  0
    8.5252   -1.2360    0.0000 C   0  0  0  0  0  0  0  0  0
    7.7182   -1.4075    0.0000 C   0  0  0  0  0  0  0  0  0
    7.3057   -2.1220    0.0000 O   0  0  0  0  0  0  0  0  0
    6.4988   -1.9505    0.0000 N   0  0  0  0  0  0  0  0  0
    6.4125   -1.1300    0.0000 C   0  0  0  0  0  0  0  0  0
    7.1662   -0.7944    0.0000 C   0  0  0  0  0  0  0  0  0
    7.4211   -0.0098    0.0000 C   0  0  0  0  0  0  0  0  0
    8.2281    0.1617    0.0000 C   0  0  0  0  0  0  0  0  0
    5.6981   -0.7175    0.0000 C   0  0  0  0  0  0  0  0  0
    4.9836   -1.1300    0.0000 C   0  0  0  0  0  0  0  0  0
    4.2691   -0.7175    0.0000 C   0  0  0  0  0  0  0  0  0
    4.2691    0.1075    0.0000 N   0  0  0  0  0  0  0  0  0
    4.9836    0.5200    0.0000 C   0  0  0  0  0  0  0  0  0
    5.6981    0.1075    0.0000 C   0  0  0  0  0  0  0  0  0
    3.5546    0.5200    0.0000 C   0  0  0  0  0  0  0  0  0
    2.8402    0.1075    0.0000 C   0  0  0  0  0  0  0  0  0
    2.8402   -0.7175    0.0000 C   0  0  0  0  0  0  0  0  0
    2.1257   -1.1300    0.0000 C   0  0  0  0  0  0  0  0  0
    2.1257   -1.9550    0.0000 O   0  0  0  0  0  0  0  0  0
    1.4112   -0.7175    0.0000 C   0  0  0  0  0  0  0  0  0
    1.4112    0.1075    0.0000 C   0  0  0  0  0  0  0  0  0
    0.6266    0.3624    0.0000 N   0  0  0  0  0  0  0  0  0
    0.1417   -0.3050    0.0000 N   0  0  0  0  0  0  0  0  0
    0.6266   -0.9724    0.0000 C   0  0  0  0  0  0  0  0  0
    2.1257    0.5200    0.0000 C   0  0  0  0  0  0  0  0  0
  1  2  1  0  0  0  0
  2  3  4  0  0  0  0
  2 10  4  0  0  0  0
  3  4  4  0  0  0  0
  4  5  4  0  0  0  0
  4  8  4  0  0  0  0
  5  6  4  0  0  0  0
  6  7  4  0  0  0  0
  7  8  4  0  0  0  0
  7 11  1  0  0  0  0
  8  9  4  0  0  0  0
  9 10  4  0  0  0  0
 11 12  1  0  0  0  0
 11 16  1  0  0  0  0
 12 13  1  0  0  0  0
 13 14  1  0  0  0  0
 14 15  1  0  0  0  0
 14 17  1  0  0  0  0
 15 16  1  0  0  0  0
 17 18  1  0  0  0  0
 18 19  1  0  0  0  0
 18 27  1  0  0  0  0
 19 20  1  0  0  0  0
 20 21  2  0  0  0  0
 20 22  1  0  0  0  0
 22 23  4  0  0  0  0
 22 26  4  0  0  0  0
 23 24  4  0  0  0  0
 23 27  1  0  0  0  0
 24 25  4  0  0  0  0
 25 26  4  0  0  0  0
M  STY  1   1 DAT
M  SAL   1  1  24
M  SDT   1 MRV_IMPLICIT_H                                        
M  SDD   1     0.0000    0.0000    DR    ALL  0       0  
M  SED   1 IMPL_H1
M  END
>  <Name_Molregno>
412537

>  <5-HT2A>
8.67

>  <5-HT2C>
6.91

>  <DOPAMINE D2>
6.95

$$$$
412538
  Marvin  02231216192D 0   1.00000     0.00000     0

 27 30  0  0  1  0  0  0  0  0999 V2000
    9.5801    1.7119    0.0000 F   0  0  0  0  0  0  0  0  0
    8.8656    1.2994    0.0000 C   0  0  0  0  0  0  0  0  0
    8.8656    0.4744    0.0000 C   0  0  0  0  0  0  0  0  0
    8.1512    0.0619    0.0000 C   0  0  0  0  0  0  0  0  0
    7.4367    0.4744    0.0000 C   0  0  0  0  0  0  0  0  0
    7.4367    1.2994    0.0000 C   0  0  0  0  0  0  0  0  0
    8.1512    1.7119    0.0000 C   0  0  0  0  0  0  0  0  0
    6.7222    0.0619    0.0000 C   0  0  0  0  0  0  0  0  0
    6.7222   -0.7631    0.0000 O   0  0  0  0  0  0  0  0  0
    6.0078    0.4744    0.0000 C   0  0  0  0  0  0  0  0  0
    5.2933    0.0619    0.0000 C   0  0  0  0  0  0  0  0  0
    4.5788    0.4744    0.0000 C   0  0  0  0  0  0  0  0  0
    4.5788    1.2994    0.0000 N   0  0  0  0  0  0  0  0  0
    5.2933    1.7119    0.0000 C   0  0  0  0  0  0  0  0  0
    6.0078    1.2994    0.0000 C   0  0  0  0  0  0  0  0  0
    3.8643    1.7119    0.0000 C   0  0  0  0  0  0  0  0  0
    3.1499    1.2994    0.0000 C   0  0  0  0  0  0  0  0  0
    3.1499    0.4744    0.0000 C   0  0  0  0  0  0  0  0  0
    2.4354    0.0619    0.0000 C   0  0  0  0  0  0  0  0  0
    2.4354   -0.7631    0.0000 O   0  0  0  0  0  0  0  0  0
    1.7209    0.4744    0.0000 C   0  0  0  0  0  0  0  0  0
    1.7209    1.2994    0.0000 C   0  0  0  0  0  0  0  0  0
    0.9363    1.5543    0.0000 N   0  0  0  0  0  0  0  0  0
    0.4514    0.8869    0.0000 N   0  0  0  0  0  0  0  0  0
    0.9363    0.2194    0.0000 C   0  0  0  0  0  0  0  0  0
    0.6814    2.3389    0.0000 C   0  0  0  0  0  0  0  0  0
    2.4354    1.7119    0.0000 C   0  0  0  0  0  0  0  0  0
  1  2  1  0  0  0  0
  2  3  4  0  0  0  0
  2  7  4  0  0  0  0
  3  4  4  0  0  0  0
  4  5  4  0  0  0  0
  5  6  4  0  0  0  0
  5  8  1  0  0  0  0
  6  7  4  0  0  0  0
  8  9  2  0  0  0  0
  8 10  1  0  0  0  0
 10 11  1  0  0  0  0
 10 15  1  0  0  0  0
 11 12  1  0  0  0  0
 12 13  1  0  0  0  0
 13 14  1  0  0  0  0
 13 16  1  0  0  0  0
 14 15  1  0  0  0  0
 16 17  1  0  0  0  0
 17 18  1  0  0  0  0
 17 27  1  0  0  0  0
 18 19  1  0  0  0  0
 19 20  2  0  0  0  0
 19 21  1  0  0  0  0
 21 22  4  0  0  0  0
 21 25  4  0  0  0  0
 22 23  4  0  0  0  0
 22 27  1  0  0  0  0
 23 24  4  0  0  0  0
 23 26  1  0  0  0  0
 24 25  4  0  0  0  0
M  END
>  <Name_Molregno>
412538

>  <5-HT2A>
7.52

>  <5-HT2C>
6.96

>  <DOPAMINE D2>
5

$$$$
412539
  Marvin  02231216192D 0   1.00000     0.00000     0

 28 32  0  0  1  0  0  0  0  0999 V2000
    9.8905   -0.3477    0.0000 F   0  0  0  0  0  0  0  0  0
    9.0835   -0.5192    0.0000 C   0  0  0  0  0  0  0  0  0
    8.8286   -1.3038    0.0000 C   0  0  0  0  0  0  0  0  0
    8.0216   -1.4754    0.0000 C   0  0  0  0  0  0  0  0  0
    7.6091   -2.1898    0.0000 O   0  0  0  0  0  0  0  0  0
    6.8021   -2.0183    0.0000 N   0  0  0  0  0  0  0  0  0
    6.7159   -1.1978    0.0000 C   0  0  0  0  0  0  0  0  0
    7.4696   -0.8623    0.0000 C   0  0  0  0  0  0  0  0  0
    7.7245   -0.0776    0.0000 C   0  0  0  0  0  0  0  0  0
    8.5315    0.0939    0.0000 C   0  0  0  0  0  0  0  0  0
    6.0014   -0.7853    0.0000 C   0  0  0  0  0  0  0  0  0
    5.2869   -1.1978    0.0000 C   0  0  0  0  0  0  0  0  0
    4.5725   -0.7853    0.0000 C   0  0  0  0  0  0  0  0  0
    4.5725    0.0397    0.0000 N   0  0  0  0  0  0  0  0  0
    5.2869    0.4522    0.0000 C   0  0  0  0  0  0  0  0  0
    6.0014    0.0397    0.0000 C   0  0  0  0  0  0  0  0  0
    3.8580    0.4522    0.0000 C   0  0  0  0  0  0  0  0  0
    3.1435    0.0397    0.0000 C   0  0  0  0  0  0  0  0  0
    3.1435   -0.7853    0.0000 C   0  0  0  0  0  0  0  0  0
    2.4291   -1.1978    0.0000 C   0  0  0  0  0  0  0  0  0
    2.4291   -2.0228    0.0000 O   0  0  0  0  0  0  0  0  0
    1.7146   -0.7853    0.0000 C   0  0  0  0  0  0  0  0  0
    1.7146    0.0397    0.0000 C   0  0  0  0  0  0  0  0  0
    0.9300    0.2946    0.0000 N   0  0  0  0  0  0  0  0  0
    0.4450   -0.3728    0.0000 N   0  0  0  0  0  0  0  0  0
    0.9300   -1.0403    0.0000 C   0  0  0  0  0  0  0  0  0
    0.6750    1.0792    0.0000 C   0  0  0  0  0  0  0  0  0
    2.4291    0.4522    0.0000 C   0  0  0  0  0  0  0  0  0
  1  2  1  0  0  0  0
  2  3  4  0  0  0  0
  2 10  4  0  0  0  0
  3  4  4  0  0  0  0
  4  5  4  0  0  0  0
  4  8  4  0  0  0  0
  5  6  4  0  0  0  0
  6  7  4  0  0  0  0
  7  8  4  0  0  0  0
  7 11  1  0  0  0  0
  8  9  4  0  0  0  0
  9 10  4  0  0  0  0
 11 12  1  0  0  0  0
 11 16  1  0  0  0  0
 12 13  1  0  0  0  0
 13 14  1  0  0  0  0
 14 15  1  0  0  0  0
 14 17  1  0  0  0  0
 15 16  1  0  0  0  0
 17 18  1  0  0  0  0
 18 19  1  0  0  0  0
 18 28  1  0  0  0  0
 19 20  1  0  0  0  0
 20 21  2  0  0  0  0
 20 22  1  0  0  0  0
 22 23  4  0  0  0  0
 22 26  4  0  0  0  0
 23 24  4  0  0  0  0
 23 28  1  0  0  0  0
 24 25  4  0  0  0  0
 24 27  1  0  0  0  0
 25 26  4  0  0  0  0
M  END
>  <Name_Molregno>
412539

>  <5-HT2A>
7.76

>  <5-HT2C>
6.15

>  <DOPAMINE D2>
5

$$$$
412542
  Marvin  02231216192D 0   1.00000     0.00000     0

 27 30  0  0  1  0  0  0  0  0999 V2000
    3.1042    4.5909    0.0000 F   0  0  0  0  0  0  0  0  0
    3.8187    4.1784    0.0000 C   0  0  0  0  0  0  0  0  0
    4.5331    4.5909    0.0000 C   0  0  0  0  0  0  0  0  0
    5.2476    4.1784    0.0000 C   0  0  0  0  0  0  0  0  0
    5.2476    3.3534    0.0000 C   0  0  0  0  0  0  0  0  0
    4.5331    2.9409    0.0000 C   0  0  0  0  0  0  0  0  0
    3.8187    3.3534    0.0000 C   0  0  0  0  0  0  0  0  0
    5.9621    2.9409    0.0000 C   0  0  0  0  0  0  0  0  0
    6.6766    3.3534    0.0000 O   0  0  0  0  0  0  0  0  0
    5.9621    2.1159    0.0000 C   0  0  0  0  0  0  0  0  0
    6.6766    1.7034    0.0000 C   0  0  0  0  0  0  0  0  0
    6.6766    0.8784    0.0000 C   0  0  0  0  0  0  0  0  0
    5.9621    0.4659    0.0000 N   0  0  0  0  0  0  0  0  0
    5.2476    0.8784    0.0000 C   0  0  0  0  0  0  0  0  0
    5.2476    1.7034    0.0000 C   0  0  0  0  0  0  0  0  0
    5.9621   -0.3591    0.0000 C   0  0  0  0  0  0  0  0  0
    5.2476   -0.7716    0.0000 C   0  0  0  0  0  0  0  0  0
    5.2476   -1.5966    0.0000 C   0  0  0  0  0  0  0  0  0
    4.5331   -2.0091    0.0000 C   0  0  0  0  0  0  0  0  0
    4.5331   -2.8341    0.0000 O   0  0  0  0  0  0  0  0  0
    3.8187   -1.5966    0.0000 C   0  0  0  0  0  0  0  0  0
    3.8187   -0.7716    0.0000 C   0  0  0  0  0  0  0  0  0
    3.0341   -0.5166    0.0000 O   0  0  0  0  0  0  0  0  0
    2.5491   -1.1841    0.0000 N   0  0  0  0  0  0  0  0  0
    3.0341   -1.8515    0.0000 C   0  0  0  0  0  0  0  0  0
    2.7791   -2.6361    0.0000 C   0  0  0  0  0  0  0  0  0
    4.5331   -0.3591    0.0000 C   0  0  0  0  0  0  0  0  0
  1  2  1  0  0  0  0
  2  3  4  0  0  0  0
  2  7  4  0  0  0  0
  3  4  4  0  0  0  0
  4  5  4  0  0  0  0
  5  6  4  0  0  0  0
  5  8  1  0  0  0  0
  6  7  4  0  0  0  0
  8  9  2  0  0  0  0
  8 10  1  0  0  0  0
 10 11  1  0  0  0  0
 10 15  1  0  0  0  0
 11 12  1  0  0  0  0
 12 13  1  0  0  0  0
 13 14  1  0  0  0  0
 13 16  1  0  0  0  0
 14 15  1  0  0  0  0
 16 17  1  0  0  0  0
 17 18  1  0  0  0  0
 17 27  1  0  0  0  0
 18 19  1  0  0  0  0
 19 20  2  0  0  0  0
 19 21  1  0  0  0  0
 21 22  4  0  0  0  0
 21 25  4  0  0  0  0
 22 23  4  0  0  0  0
 22 27  1  0  0  0  0
 23 24  4  0  0  0  0
 24 25  4  0  0  0  0
 25 26  1  0  0  0  0
M  END
>  <Name_Molregno>
412542

>  <5-HT2A>
7.39

>  <5-HT2C>
5

>  <DOPAMINE D2>
5

$$$$
412545
  Marvin  02231216192D 0   1.00000     0.00000     0

 28 32  0  0  1  0  0  0  0  0999 V2000
    3.6565    3.5847    0.0000 F   0  0  0  0  0  0  0  0  0
    4.2086    2.9716    0.0000 C   0  0  0  0  0  0  0  0  0
    5.0155    3.1431    0.0000 C   0  0  0  0  0  0  0  0  0
    5.5676    2.5300    0.0000 C   0  0  0  0  0  0  0  0  0
    6.3926    2.5300    0.0000 O   0  0  0  0  0  0  0  0  0
    6.6475    1.7454    0.0000 N   0  0  0  0  0  0  0  0  0
    5.9801    1.2605    0.0000 C   0  0  0  0  0  0  0  0  0
    5.3126    1.7454    0.0000 C   0  0  0  0  0  0  0  0  0
    4.5057    1.5739    0.0000 C   0  0  0  0  0  0  0  0  0
    3.9536    2.1870    0.0000 C   0  0  0  0  0  0  0  0  0
    5.9801    0.4355    0.0000 C   0  0  0  0  0  0  0  0  0
    6.6945    0.0230    0.0000 C   0  0  0  0  0  0  0  0  0
    6.6945   -0.8020    0.0000 C   0  0  0  0  0  0  0  0  0
    5.9801   -1.2145    0.0000 N   0  0  0  0  0  0  0  0  0
    5.2656   -0.8020    0.0000 C   0  0  0  0  0  0  0  0  0
    5.2656    0.0230    0.0000 C   0  0  0  0  0  0  0  0  0
    5.9801   -2.0395    0.0000 C   0  0  0  0  0  0  0  0  0
    5.2656   -2.4520    0.0000 C   0  0  0  0  0  0  0  0  0
    5.2656   -3.2770    0.0000 C   0  0  0  0  0  0  0  0  0
    4.5511   -3.6895    0.0000 C   0  0  0  0  0  0  0  0  0
    4.5511   -4.5145    0.0000 O   0  0  0  0  0  0  0  0  0
    3.8367   -3.2770    0.0000 C   0  0  0  0  0  0  0  0  0
    3.8367   -2.4520    0.0000 C   0  0  0  0  0  0  0  0  0
    3.0520   -2.1971    0.0000 O   0  0  0  0  0  0  0  0  0
    2.5671   -2.8645    0.0000 N   0  0  0  0  0  0  0  0  0
    3.0520   -3.5320    0.0000 C   0  0  0  0  0  0  0  0  0
    2.7971   -4.3166    0.0000 C   0  0  0  0  0  0  0  0  0
    4.5511   -2.0395    0.0000 C   0  0  0  0  0  0  0  0  0
  1  2  1  0  0  0  0
  2  3  4  0  0  0  0
  2 10  4  0  0  0  0
  3  4  4  0  0  0  0
  4  5  4  0  0  0  0
  4  8  4  0  0  0  0
  5  6  4  0  0  0  0
  6  7  4  0  0  0  0
  7  8  4  0  0  0  0
  7 11  1  0  0  0  0
  8  9  4  0  0  0  0
  9 10  4  0  0  0  0
 11 12  1  0  0  0  0
 11 16  1  0  0  0  0
 12 13  1  0  0  0  0
 13 14  1  0  0  0  0
 14 15  1  0  0  0  0
 14 17  1  0  0  0  0
 15 16  1  0  0  0  0
 17 18  1  0  0  0  0
 18 19  1  0  0  0  0
 18 28  1  0  0  0  0
 19 20  1  0  0  0  0
 20 21  2  0  0  0  0
 20 22  1  0  0  0  0
 22 23  4  0  0  0  0
 22 26  4  0  0  0  0
 23 24  4  0  0  0  0
 23 28  1  0  0  0  0
 24 25  4  0  0  0  0
 25 26  4  0  0  0  0
 26 27  1  0  0  0  0
M  END
>  <Name_Molregno>
412545

>  <5-HT2A>
7.76

>  <5-HT2C>
6.13

>  <DOPAMINE D2>
6.92

$$$$
421822
  Marvin  02231216192D 0   1.00000     0.00000     0

 21 23  0  0  1  0  0  0  0  0999 V2000
   -3.0222   -2.3693    0.0000 Cl  0  0  0  0  0  0  0  0  0
   -3.0222   -1.5443    0.0000 C   0  0  0  0  0  0  0  0  0
   -2.3077   -1.1318    0.0000 C   0  0  0  0  0  0  0  0  0
   -2.3077   -0.3068    0.0000 C   0  0  0  0  0  0  0  0  0
   -1.5933    0.1057    0.0000 N   0  0  0  0  0  0  0  0  0
   -0.8788   -0.3068    0.0000 C   0  0  0  0  0  0  0  0  0
   -0.1643    0.1057    0.0000 O   0  0  0  0  0  0  0  0  0
   -0.8788   -1.1318    0.0000 C   0  0  0  0  0  0  0  0  0
   -0.0663   -0.9885    0.0000 C   0  0  0  0  0  0  0  0  0
   -1.5933   -1.5443    0.0000 C   0  0  0  0  0  0  0  0  0
   -1.5933   -2.3693    0.0000 O   0  0  0  0  0  0  0  0  0
   -0.5966   -1.9070    0.0000 C   0  0  0  0  0  0  0  0  0
    0.2158   -2.0503    0.0000 C   0  0  0  0  0  0  0  0  0
    0.4980   -2.8255    0.0000 C   0  0  0  0  0  0  0  0  0
   -0.0323   -3.4575    0.0000 C   0  0  0  0  0  0  0  0  0
   -0.8448   -3.3143    0.0000 C   0  0  0  0  0  0  0  0  0
   -1.1269   -2.5390    0.0000 C   0  0  0  0  0  0  0  0  0
   -3.0222    0.1057    0.0000 C   0  0  0  0  0  0  0  0  0
   -3.7367   -0.3068    0.0000 C   0  0  0  0  0  0  0  0  0
   -4.4512    0.1057    0.0000 Cl  0  0  0  0  0  0  0  0  0
   -3.7367   -1.1318    0.0000 C   0  0  0  0  0  0  0  0  0
  1  2  1  0  0  0  0
  2  3  4  0  0  0  0
  2 21  4  0  0  0  0
  3  4  4  0  0  0  0
  3 10  1  0  0  0  0
  4  5  1  0  0  0  0
  4 18  4  0  0  0  0
  5  6  1  0  0  0  0
  6  7  2  0  0  0  0
  6  8  1  0  0  0  0
  8  9  1  0  0  0  0
  8 10  1  0  0  0  0
  8 12  1  0  0  0  0
 10 11  2  0  0  0  0
 12 13  4  0  0  0  0
 12 17  4  0  0  0  0
 13 14  4  0  0  0  0
 14 15  4  0  0  0  0
 15 16  4  0  0  0  0
 16 17  4  0  0  0  0
 18 19  4  0  0  0  0
 19 20  1  0  0  0  0
 19 21  4  0  0  0  0
M  END
>  <Name_Molregno>
421822

>  <5-HT1A>
5

>  <5-HT2A>
5

>  <5-HT2C>
5

>  <5-HT6>
7.26

>  <5-HT7>
5

>  <DOPAMINE D1>
5

>  <DOPAMINE D2>
5

>  <DOPAMINE D3>
5

>  <DOPAMINE D4>
5

$$$$
422032
  Marvin  02231216192D 0   1.00000     0.00000     0

 22 24  0  0  1  0  0  0  0  0999 V2000
    0.2420   -2.2208    0.0000 Cl  0  0  0  0  0  0  0  0  0
    0.2420   -1.3958    0.0000 C   0  0  0  0  0  0  0  0  0
    0.9565   -0.9833    0.0000 C   0  0  0  0  0  0  0  0  0
    0.9565   -0.1583    0.0000 C   0  0  0  0  0  0  0  0  0
    1.6709    0.2542    0.0000 N   0  0  0  0  0  0  0  0  0
    2.3854   -0.1583    0.0000 C   0  0  0  0  0  0  0  0  0
    3.0999    0.2542    0.0000 O   0  0  0  0  0  0  0  0  0
    2.3854   -0.9833    0.0000 C   0  0  0  0  0  0  0  0  0
    3.1979   -0.8401    0.0000 C   0  0  0  0  0  0  0  0  0
    1.6709   -1.3958    0.0000 C   0  0  0  0  0  0  0  0  0
    1.6709   -2.2208    0.0000 O   0  0  0  0  0  0  0  0  0
    2.6676   -1.7586    0.0000 C   0  0  0  0  0  0  0  0  0
    3.4800   -1.9018    0.0000 C   0  0  0  0  0  0  0  0  0
    3.7622   -2.6771    0.0000 C   0  0  0  0  0  0  0  0  0
    4.5747   -2.8203    0.0000 O   0  0  0  0  0  0  0  0  0
    3.2319   -3.3091    0.0000 C   0  0  0  0  0  0  0  0  0
    2.4194   -3.1658    0.0000 C   0  0  0  0  0  0  0  0  0
    2.1373   -2.3906    0.0000 C   0  0  0  0  0  0  0  0  0
    0.2420    0.2542    0.0000 C   0  0  0  0  0  0  0  0  0
   -0.4725   -0.1583    0.0000 C   0  0  0  0  0  0  0  0  0
   -1.1870    0.2542    0.0000 Cl  0  0  0  0  0  0  0  0  0
   -0.4725   -0.9833    0.0000 C   0  0  0  0  0  0  0  0  0
  1  2  1  0  0  0  0
  2  3  4  0  0  0  0
  2 22  4  0  0  0  0
  3  4  4  0  0  0  0
  3 10  1  0  0  0  0
  4  5  1  0  0  0  0
  4 19  4  0  0  0  0
  5  6  1  0  0  0  0
  6  7  2  0  0  0  0
  6  8  1  0  0  0  0
  8  9  1  0  0  0  0
  8 10  1  0  0  0  0
  8 12  1  0  0  0  0
 10 11  2  0  0  0  0
 12 13  4  0  0  0  0
 12 18  4  0  0  0  0
 13 14  4  0  0  0  0
 14 15  1  0  0  0  0
 14 16  4  0  0  0  0
 16 17  4  0  0  0  0
 17 18  4  0  0  0  0
 19 20  4  0  0  0  0
 20 21  1  0  0  0  0
 20 22  4  0  0  0  0
M  END
>  <Name_Molregno>
422032

>  <5-HT1A>
5

>  <5-HT2A>
5

>  <5-HT2C>
5

>  <5-HT6>
7.52

>  <5-HT7>
5

>  <DOPAMINE D1>
5.74

>  <DOPAMINE D2>
5

>  <DOPAMINE D3>
5

>  <DOPAMINE D4>
5

$$$$
422034
  Marvin  02231216192D 0   1.00000     0.00000     0

 22 24  0  0  1  0  0  0  0  0999 V2000
   -3.2883   -2.2141    0.0000 Cl  0  0  0  0  0  0  0  0  0
   -3.2883   -1.3891    0.0000 C   0  0  0  0  0  0  0  0  0
   -2.5738   -0.9766    0.0000 C   0  0  0  0  0  0  0  0  0
   -2.5738   -0.1516    0.0000 C   0  0  0  0  0  0  0  0  0
   -1.8594    0.2609    0.0000 N   0  0  0  0  0  0  0  0  0
   -1.1449   -0.1516    0.0000 C   0  0  0  0  0  0  0  0  0
   -0.4304    0.2609    0.0000 O   0  0  0  0  0  0  0  0  0
   -1.1449   -0.9766    0.0000 C   0  0  0  0  0  0  0  0  0
   -0.3324   -0.8334    0.0000 C   0  0  0  0  0  0  0  0  0
   -1.8594   -1.3891    0.0000 C   0  0  0  0  0  0  0  0  0
   -1.8594   -2.2141    0.0000 O   0  0  0  0  0  0  0  0  0
   -0.8627   -1.7519    0.0000 C   0  0  0  0  0  0  0  0  0
   -0.0503   -1.8951    0.0000 C   0  0  0  0  0  0  0  0  0
    0.2319   -2.6704    0.0000 C   0  0  0  0  0  0  0  0  0
   -0.2984   -3.3024    0.0000 C   0  0  0  0  0  0  0  0  0
   -0.0162   -4.0776    0.0000 O   0  0  0  0  0  0  0  0  0
   -1.1109   -3.1591    0.0000 C   0  0  0  0  0  0  0  0  0
   -1.3930   -2.3839    0.0000 C   0  0  0  0  0  0  0  0  0
   -3.2883    0.2609    0.0000 C   0  0  0  0  0  0  0  0  0
   -4.0028   -0.1516    0.0000 C   0  0  0  0  0  0  0  0  0
   -4.7172    0.2609    0.0000 Cl  0  0  0  0  0  0  0  0  0
   -4.0028   -0.9766    0.0000 C   0  0  0  0  0  0  0  0  0
  1  2  1  0  0  0  0
  2  3  4  0  0  0  0
  2 22  4  0  0  0  0
  3  4  4  0  0  0  0
  3 10  1  0  0  0  0
  4  5  1  0  0  0  0
  4 19  4  0  0  0  0
  5  6  1  0  0  0  0
  6  7  2  0  0  0  0
  6  8  1  0  0  0  0
  8  9  1  0  0  0  0
  8 10  1  0  0  0  0
  8 12  1  0  0  0  0
 10 11  2  0  0  0  0
 12 13  4  0  0  0  0
 12 18  4  0  0  0  0
 13 14  4  0  0  0  0
 14 15  4  0  0  0  0
 15 16  1  0  0  0  0
 15 17  4  0  0  0  0
 17 18  4  0  0  0  0
 19 20  4  0  0  0  0
 20 21  1  0  0  0  0
 20 22  4  0  0  0  0
M  END
>  <Name_Molregno>
422034

>  <5-HT1A>
5

>  <5-HT2A>
5

>  <5-HT2C>
5

>  <5-HT6>
7.91

>  <5-HT7>
5

>  <DOPAMINE D1>
5

>  <DOPAMINE D2>
5

>  <DOPAMINE D3>
5

>  <DOPAMINE D4>
5

$$$$
422042
  Marvin  02231216192D 0   1.00000     0.00000     0

 29 32  0  0  1  0  0  0  0  0999 V2000
   -4.6946   -2.2677    0.0000 Cl  0  0  0  0  0  0  0  0  0
   -4.6946   -1.4427    0.0000 C   0  0  0  0  0  0  0  0  0
   -3.9801   -1.0302    0.0000 C   0  0  0  0  0  0  0  0  0
   -3.9801   -0.2052    0.0000 C   0  0  0  0  0  0  0  0  0
   -3.2656    0.2073    0.0000 N   0  0  0  0  0  0  0  0  0
   -2.5512   -0.2052    0.0000 C   0  0  0  0  0  0  0  0  0
   -1.8367    0.2073    0.0000 O   0  0  0  0  0  0  0  0  0
   -2.5512   -1.0302    0.0000 C   0  0  0  0  0  0  0  0  0
   -1.7387   -0.8870    0.0000 C   0  0  0  0  0  0  0  0  0
   -3.2656   -1.4427    0.0000 C   0  0  0  0  0  0  0  0  0
   -3.2656   -2.2677    0.0000 O   0  0  0  0  0  0  0  0  0
   -2.2690   -1.8055    0.0000 C   0  0  0  0  0  0  0  0  0
   -1.4565   -1.9487    0.0000 C   0  0  0  0  0  0  0  0  0
   -1.1744   -2.7240    0.0000 C   0  0  0  0  0  0  0  0  0
   -0.3619   -2.8672    0.0000 O   0  0  0  0  0  0  0  0  0
   -0.0797   -3.6425    0.0000 C   0  0  0  0  0  0  0  0  0
    0.7327   -3.7857    0.0000 C   0  0  0  0  0  0  0  0  0
    1.2630   -3.1538    0.0000 C   0  0  0  0  0  0  0  0  0
    2.0755   -3.2970    0.0000 C   0  0  0  0  0  0  0  0  0
    2.3577   -4.0723    0.0000 C   0  0  0  0  0  0  0  0  0
    1.8274   -4.7042    0.0000 C   0  0  0  0  0  0  0  0  0
    1.0149   -4.5610    0.0000 C   0  0  0  0  0  0  0  0  0
   -1.7047   -3.3560    0.0000 C   0  0  0  0  0  0  0  0  0
   -2.5171   -3.2127    0.0000 C   0  0  0  0  0  0  0  0  0
   -2.7993   -2.4375    0.0000 C   0  0  0  0  0  0  0  0  0
   -4.6946    0.2073    0.0000 C   0  0  0  0  0  0  0  0  0
   -5.4091   -0.2052    0.0000 C   0  0  0  0  0  0  0  0  0
   -6.1235    0.2073    0.0000 Cl  0  0  0  0  0  0  0  0  0
   -5.4091   -1.0302    0.0000 C   0  0  0  0  0  0  0  0  0
  1  2  1  0  0  0  0
  2  3  4  0  0  0  0
  2 29  4  0  0  0  0
  3  4  4  0  0  0  0
  3 10  1  0  0  0  0
  4  5  1  0  0  0  0
  4 26  4  0  0  0  0
  5  6  1  0  0  0  0
  6  7  2  0  0  0  0
  6  8  1  0  0  0  0
  8  9  1  0  0  0  0
  8 10  1  0  0  0  0
  8 12  1  0  0  0  0
 10 11  2  0  0  0  0
 12 13  4  0  0  0  0
 12 25  4  0  0  0  0
 13 14  4  0  0  0  0
 14 15  1  0  0  0  0
 14 23  4  0  0  0  0
 15 16  1  0  0  0  0
 16 17  1  0  0  0  0
 17 18  4  0  0  0  0
 17 22  4  0  0  0  0
 18 19  4  0  0  0  0
 19 20  4  0  0  0  0
 20 21  4  0  0  0  0
 21 22  4  0  0  0  0
 23 24  4  0  0  0  0
 24 25  4  0  0  0  0
 26 27  4  0  0  0  0
 27 28  1  0  0  0  0
 27 29  4  0  0  0  0
M  END
>  <Name_Molregno>
422042

>  <5-HT1A>
6.77

>  <5-HT2A>
6.14

>  <5-HT2C>
5

>  <5-HT6>
7.08

>  <5-HT7>
6.22

>  <DOPAMINE D1>
6.92

>  <DOPAMINE D2>
5

>  <DOPAMINE D3>
5

>  <DOPAMINE D4>
5

$$$$
423207
  Marvin  02231216192D 0   1.00000     0.00000     0

 27 31  0  0  1  0  0  0  0  0999 V2000
    4.0851    5.0663    0.0000 S   0  0  0  0  0  0  0  0  0
    3.6002    4.3989    0.0000 N   0  0  0  0  0  0  0  0  0
    4.0851    3.7314    0.0000 C   0  0  0  0  0  0  0  0  0
    3.8302    2.9468    0.0000 N   0  0  0  0  0  0  0  0  0
    4.3822    2.3337    0.0000 C   0  0  0  0  0  0  0  0  0
    4.1273    1.5491    0.0000 C   0  0  0  0  0  0  0  0  0
    3.3203    1.3776    0.0000 N   0  0  0  0  0  0  0  0  0
    2.7683    1.9907    0.0000 C   0  0  0  0  0  0  0  0  0
    3.0232    2.7753    0.0000 C   0  0  0  0  0  0  0  0  0
    3.0654    0.5929    0.0000 C   0  0  0  0  0  0  0  0  0
    2.2584    0.4214    0.0000 C   0  0  0  0  0  0  0  0  0
    2.0035   -0.3632    0.0000 C   0  0  0  0  0  0  0  0  0
    2.5555   -0.9763    0.0000 C   0  0  0  0  0  0  0  0  0
    2.3006   -1.7609    0.0000 C   0  0  0  0  0  0  0  0  0
    1.4936   -1.9324    0.0000 C   0  0  0  0  0  0  0  0  0
    1.4073   -2.7529    0.0000 C   0  0  0  0  0  0  0  0  0
    2.1610   -3.0885    0.0000 C   0  0  0  0  0  0  0  0  0
    2.7131   -2.4754    0.0000 C   0  0  0  0  0  0  0  0  0
    3.5335   -2.5616    0.0000 N   0  0  0  0  0  0  0  0  0
    0.9416   -1.3194    0.0000 C   0  0  0  0  0  0  0  0  0
    1.1965   -0.5347    0.0000 C   0  0  0  0  0  0  0  0  0
    4.8697    3.9864    0.0000 C   0  0  0  0  0  0  0  0  0
    4.8697    4.8114    0.0000 C   0  0  0  0  0  0  0  0  0
    5.5842    5.2239    0.0000 C   0  0  0  0  0  0  0  0  0
    6.2987    4.8114    0.0000 C   0  0  0  0  0  0  0  0  0
    6.2987    3.9864    0.0000 C   0  0  0  0  0  0  0  0  0
    5.5842    3.5739    0.0000 C   0  0  0  0  0  0  0  0  0
  1  2  4  0  0  0  0
  1 23  4  0  0  0  0
  2  3  4  0  0  0  0
  3  4  1  0  0  0  0
  3 22  4  0  0  0  0
  4  5  1  0  0  0  0
  4  9  1  0  0  0  0
  5  6  1  0  0  0  0
  6  7  1  0  0  0  0
  7  8  1  0  0  0  0
  7 10  1  0  0  0  0
  8  9  1  0  0  0  0
 10 11  1  0  0  0  0
 11 12  1  0  0  0  0
 12 13  4  0  0  0  0
 12 21  4  0  0  0  0
 13 14  4  0  0  0  0
 14 15  4  0  0  0  0
 14 18  1  0  0  0  0
 15 16  1  0  0  0  0
 15 20  4  0  0  0  0
 16 17  1  0  0  0  0
 17 18  1  0  0  0  0
 18 19  1  0  0  0  0
 20 21  4  0  0  0  0
 22 23  4  0  0  0  0
 22 27  4  0  0  0  0
 23 24  4  0  0  0  0
 24 25  4  0  0  0  0
 25 26  4  0  0  0  0
 26 27  4  0  0  0  0
M  END
>  <Name_Molregno>
423207

>  <5-HT1A>
8.7

>  <5-HT2A>
10.05

>  <DOPAMINE D2>
7.68

$$$$
423208
  Marvin  02231216192D 0   1.00000     0.00000     0

 30 34  0  0  1  0  0  0  0  0999 V2000
    4.5456    3.0720    0.0000 S   0  0  0  0  0  0  0  0  0
    4.0607    2.4046    0.0000 N   0  0  0  0  0  0  0  0  0
    4.5456    1.7372    0.0000 C   0  0  0  0  0  0  0  0  0
    4.2907    0.9525    0.0000 N   0  0  0  0  0  0  0  0  0
    4.8427    0.3394    0.0000 C   0  0  0  0  0  0  0  0  0
    4.5878   -0.4452    0.0000 C   0  0  0  0  0  0  0  0  0
    3.7808   -0.6167    0.0000 N   0  0  0  0  0  0  0  0  0
    3.2288   -0.0036    0.0000 C   0  0  0  0  0  0  0  0  0
    3.4837    0.7810    0.0000 C   0  0  0  0  0  0  0  0  0
    3.5259   -1.4013    0.0000 C   0  0  0  0  0  0  0  0  0
    2.7189   -1.5729    0.0000 C   0  0  0  0  0  0  0  0  0
    2.4640   -2.3575    0.0000 C   0  0  0  0  0  0  0  0  0
    3.0160   -2.9706    0.0000 C   0  0  0  0  0  0  0  0  0
    2.7610   -3.7552    0.0000 C   0  0  0  0  0  0  0  0  0
    1.9541   -3.9267    0.0000 C   0  0  0  0  0  0  0  0  0
    1.8678   -4.7472    0.0000 C   0  0  0  0  0  0  0  0  0
    2.6215   -5.0828    0.0000 C   0  0  0  0  0  0  0  0  0
    3.1735   -4.4697    0.0000 C   0  0  0  0  0  0  0  0  0
    3.9940   -4.5559    0.0000 N   0  0  0  0  0  0  0  0  0
    4.3296   -5.3096    0.0000 C   0  0  0  0  0  0  0  0  0
    5.1501   -5.3958    0.0000 O   0  0  0  0  0  0  0  0  0
    3.8447   -5.9770    0.0000 C   0  0  0  0  0  0  0  0  0
    1.4020   -3.3136    0.0000 C   0  0  0  0  0  0  0  0  0
    1.6570   -2.5290    0.0000 C   0  0  0  0  0  0  0  0  0
    5.3302    1.9921    0.0000 C   0  0  0  0  0  0  0  0  0
    5.3302    2.8171    0.0000 C   0  0  0  0  0  0  0  0  0
    6.0447    3.2296    0.0000 C   0  0  0  0  0  0  0  0  0
    6.7592    2.8171    0.0000 C   0  0  0  0  0  0  0  0  0
    6.7592    1.9921    0.0000 C   0  0  0  0  0  0  0  0  0
    6.0447    1.5796    0.0000 C   0  0  0  0  0  0  0  0  0
  1  2  4  0  0  0  0
  1 26  4  0  0  0  0
  2  3  4  0  0  0  0
  3  4  1  0  0  0  0
  3 25  4  0  0  0  0
  4  5  1  0  0  0  0
  4  9  1  0  0  0  0
  5  6  1  0  0  0  0
  6  7  1  0  0  0  0
  7  8  1  0  0  0  0
  7 10  1  0  0  0  0
  8  9  1  0  0  0  0
 10 11  1  0  0  0  0
 11 12  1  0  0  0  0
 12 13  4  0  0  0  0
 12 24  4  0  0  0  0
 13 14  4  0  0  0  0
 14 15  4  0  0  0  0
 14 18  1  0  0  0  0
 15 16  1  0  0  0  0
 15 23  4  0  0  0  0
 16 17  1  0  0  0  0
 17 18  1  0  0  0  0
 18 19  1  0  0  0  0
 19 20  1  0  0  0  0
 20 21  2  0  0  0  0
 20 22  1  0  0  0  0
 23 24  4  0  0  0  0
 25 26  4  0  0  0  0
 25 30  4  0  0  0  0
 26 27  4  0  0  0  0
 27 28  4  0  0  0  0
 28 29  4  0  0  0  0
 29 30  4  0  0  0  0
M  END
>  <Name_Molregno>
423208

>  <5-HT1A>
8.12

>  <5-HT2A>
11

>  <DOPAMINE D2>
7.66

$$$$
423209
  Marvin  02231216192D 0   1.00000     0.00000     0

 31 35  0  0  1  0  0  0  0  0999 V2000
    6.1507    2.8172    0.0000 S   0  0  0  0  0  0  0  0  0
    5.6658    2.1498    0.0000 N   0  0  0  0  0  0  0  0  0
    6.1507    1.4823    0.0000 C   0  0  0  0  0  0  0  0  0
    5.8957    0.6977    0.0000 N   0  0  0  0  0  0  0  0  0
    6.4478    0.0846    0.0000 C   0  0  0  0  0  0  0  0  0
    6.1928   -0.7000    0.0000 C   0  0  0  0  0  0  0  0  0
    5.3859   -0.8715    0.0000 N   0  0  0  0  0  0  0  0  0
    4.8338   -0.2584    0.0000 C   0  0  0  0  0  0  0  0  0
    5.0888    0.5262    0.0000 C   0  0  0  0  0  0  0  0  0
    5.1309   -1.6561    0.0000 C   0  0  0  0  0  0  0  0  0
    4.3239   -1.8277    0.0000 C   0  0  0  0  0  0  0  0  0
    3.7719   -1.2146    0.0000 C   0  0  0  0  0  0  0  0  0
    2.9649   -1.3861    0.0000 C   0  0  0  0  0  0  0  0  0
    2.4129   -0.7730    0.0000 C   0  0  0  0  0  0  0  0  0
    2.6678    0.0116    0.0000 C   0  0  0  0  0  0  0  0  0
    2.0004    0.4965    0.0000 C   0  0  0  0  0  0  0  0  0
    1.3330    0.0116    0.0000 C   0  0  0  0  0  0  0  0  0
    1.5879   -0.7730    0.0000 C   0  0  0  0  0  0  0  0  0
    1.1030   -1.4404    0.0000 N   0  0  0  0  0  0  0  0  0
    0.2825   -1.3542    0.0000 C   0  0  0  0  0  0  0  0  0
   -0.0531   -0.6005    0.0000 O   0  0  0  0  0  0  0  0  0
   -0.2024   -2.0216    0.0000 C   0  0  0  0  0  0  0  0  0
   -1.0229   -1.9354    0.0000 C   0  0  0  0  0  0  0  0  0
    3.4748    0.1831    0.0000 C   0  0  0  0  0  0  0  0  0
    4.0269   -0.4299    0.0000 C   0  0  0  0  0  0  0  0  0
    6.9353    1.7373    0.0000 C   0  0  0  0  0  0  0  0  0
    6.9353    2.5623    0.0000 C   0  0  0  0  0  0  0  0  0
    7.6498    2.9748    0.0000 C   0  0  0  0  0  0  0  0  0
    8.3642    2.5623    0.0000 C   0  0  0  0  0  0  0  0  0
    8.3642    1.7373    0.0000 C   0  0  0  0  0  0  0  0  0
    7.6498    1.3248    0.0000 C   0  0  0  0  0  0  0  0  0
  1  2  4  0  0  0  0
  1 27  4  0  0  0  0
  2  3  4  0  0  0  0
  3  4  1  0  0  0  0
  3 26  4  0  0  0  0
  4  5  1  0  0  0  0
  4  9  1  0  0  0  0
  5  6  1  0  0  0  0
  6  7  1  0  0  0  0
  7  8  1  0  0  0  0
  7 10  1  0  0  0  0
  8  9  1  0  0  0  0
 10 11  1  0  0  0  0
 11 12  1  0  0  0  0
 12 13  4  0  0  0  0
 12 25  4  0  0  0  0
 13 14  4  0  0  0  0
 14 15  4  0  0  0  0
 14 18  1  0  0  0  0
 15 16  1  0  0  0  0
 15 24  4  0  0  0  0
 16 17  1  0  0  0  0
 17 18  1  0  0  0  0
 18 19  1  0  0  0  0
 19 20  1  0  0  0  0
 20 21  2  0  0  0  0
 20 22  1  0  0  0  0
 22 23  1  0  0  0  0
 24 25  4  0  0  0  0
 26 27  4  0  0  0  0
 26 31  4  0  0  0  0
 27 28  4  0  0  0  0
 28 29  4  0  0  0  0
 29 30  4  0  0  0  0
 30 31  4  0  0  0  0
M  END
>  <Name_Molregno>
423209

>  <5-HT1A>
8.3

>  <5-HT2A>
11

>  <DOPAMINE D2>
7.47

$$$$
423210
  Marvin  02231216192D 0   1.00000     0.00000     0

 32 36  0  0  1  0  0  0  0  0999 V2000
    6.3621    3.7125    0.0000 S   0  0  0  0  0  0  0  0  0
    5.8772    3.0451    0.0000 N   0  0  0  0  0  0  0  0  0
    6.3621    2.3776    0.0000 C   0  0  0  0  0  0  0  0  0
    6.1071    1.5930    0.0000 N   0  0  0  0  0  0  0  0  0
    6.6592    0.9799    0.0000 C   0  0  0  0  0  0  0  0  0
    6.4042    0.1953    0.0000 C   0  0  0  0  0  0  0  0  0
    5.5973    0.0238    0.0000 N   0  0  0  0  0  0  0  0  0
    5.0452    0.6369    0.0000 C   0  0  0  0  0  0  0  0  0
    5.3002    1.4215    0.0000 C   0  0  0  0  0  0  0  0  0
    5.3423   -0.7608    0.0000 C   0  0  0  0  0  0  0  0  0
    4.5353   -0.9324    0.0000 C   0  0  0  0  0  0  0  0  0
    3.9833   -0.3193    0.0000 C   0  0  0  0  0  0  0  0  0
    3.1763   -0.4908    0.0000 C   0  0  0  0  0  0  0  0  0
    2.6243    0.1223    0.0000 C   0  0  0  0  0  0  0  0  0
    2.8792    0.9069    0.0000 C   0  0  0  0  0  0  0  0  0
    2.2118    1.3918    0.0000 C   0  0  0  0  0  0  0  0  0
    1.5444    0.9069    0.0000 C   0  0  0  0  0  0  0  0  0
    1.7993    0.1223    0.0000 C   0  0  0  0  0  0  0  0  0
    1.3144   -0.5452    0.0000 N   0  0  0  0  0  0  0  0  0
    0.4939   -0.4589    0.0000 C   0  0  0  0  0  0  0  0  0
    0.1583    0.2948    0.0000 O   0  0  0  0  0  0  0  0  0
    0.0090   -1.1264    0.0000 C   0  0  0  0  0  0  0  0  0
   -0.8115   -1.0401    0.0000 C   0  0  0  0  0  0  0  0  0
   -1.2964   -1.7076    0.0000 C   0  0  0  0  0  0  0  0  0
    3.6862    1.0784    0.0000 C   0  0  0  0  0  0  0  0  0
    4.2383    0.4653    0.0000 C   0  0  0  0  0  0  0  0  0
    7.1467    2.6326    0.0000 C   0  0  0  0  0  0  0  0  0
    7.1467    3.4576    0.0000 C   0  0  0  0  0  0  0  0  0
    7.8612    3.8701    0.0000 C   0  0  0  0  0  0  0  0  0
    8.5756    3.4576    0.0000 C   0  0  0  0  0  0  0  0  0
    8.5756    2.6326    0.0000 C   0  0  0  0  0  0  0  0  0
    7.8612    2.2201    0.0000 C   0  0  0  0  0  0  0  0  0
  1  2  4  0  0  0  0
  1 28  4  0  0  0  0
  2  3  4  0  0  0  0
  3  4  1  0  0  0  0
  3 27  4  0  0  0  0
  4  5  1  0  0  0  0
  4  9  1  0  0  0  0
  5  6  1  0  0  0  0
  6  7  1  0  0  0  0
  7  8  1  0  0  0  0
  7 10  1  0  0  0  0
  8  9  1  0  0  0  0
 10 11  1  0  0  0  0
 11 12  1  0  0  0  0
 12 13  4  0  0  0  0
 12 26  4  0  0  0  0
 13 14  4  0  0  0  0
 14 15  4  0  0  0  0
 14 18  1  0  0  0  0
 15 16  1  0  0  0  0
 15 25  4  0  0  0  0
 16 17  1  0  0  0  0
 17 18  1  0  0  0  0
 18 19  1  0  0  0  0
 19 20  1  0  0  0  0
 20 21  2  0  0  0  0
 20 22  1  0  0  0  0
 22 23  1  0  0  0  0
 23 24  1  0  0  0  0
 25 26  4  0  0  0  0
 27 28  4  0  0  0  0
 27 32  4  0  0  0  0
 28 29  4  0  0  0  0
 29 30  4  0  0  0  0
 30 31  4  0  0  0  0
 31 32  4  0  0  0  0
M  END
>  <Name_Molregno>
423210

>  <5-HT1A>
8.26

>  <5-HT2A>
9.35

>  <DOPAMINE D2>
7.57

$$$$
423212
  Marvin  02231216192D 0   1.00000     0.00000     0

 32 37  0  0  1  0  0  0  0  0999 V2000
    4.8225    4.5105    0.0000 S   0  0  0  0  0  0  0  0  0
    4.3376    3.8431    0.0000 N   0  0  0  0  0  0  0  0  0
    4.8225    3.1756    0.0000 C   0  0  0  0  0  0  0  0  0
    4.5676    2.3910    0.0000 N   0  0  0  0  0  0  0  0  0
    5.1196    1.7779    0.0000 C   0  0  0  0  0  0  0  0  0
    4.8647    0.9933    0.0000 C   0  0  0  0  0  0  0  0  0
    4.0577    0.8218    0.0000 N   0  0  0  0  0  0  0  0  0
    3.5057    1.4349    0.0000 C   0  0  0  0  0  0  0  0  0
    3.7606    2.2195    0.0000 C   0  0  0  0  0  0  0  0  0
    3.8028    0.0371    0.0000 C   0  0  0  0  0  0  0  0  0
    2.9958   -0.1344    0.0000 C   0  0  0  0  0  0  0  0  0
    2.7409   -0.9190    0.0000 C   0  0  0  0  0  0  0  0  0
    3.2929   -1.5321    0.0000 C   0  0  0  0  0  0  0  0  0
    3.0380   -2.3167    0.0000 C   0  0  0  0  0  0  0  0  0
    2.2310   -2.4882    0.0000 C   0  0  0  0  0  0  0  0  0
    2.1448   -3.3087    0.0000 C   0  0  0  0  0  0  0  0  0
    2.8984   -3.6443    0.0000 C   0  0  0  0  0  0  0  0  0
    3.4505   -3.0312    0.0000 C   0  0  0  0  0  0  0  0  0
    4.2709   -3.1174    0.0000 N   0  0  0  0  0  0  0  0  0
    4.6065   -3.8711    0.0000 C   0  0  0  0  0  0  0  0  0
    4.1216   -4.5385    0.0000 O   0  0  0  0  0  0  0  0  0
    5.4270   -3.9573    0.0000 C   0  0  0  0  0  0  0  0  0
    6.1807   -3.6218    0.0000 C   0  0  0  0  0  0  0  0  0
    6.0944   -4.4423    0.0000 C   0  0  0  0  0  0  0  0  0
    1.6790   -1.8751    0.0000 C   0  0  0  0  0  0  0  0  0
    1.9339   -1.0905    0.0000 C   0  0  0  0  0  0  0  0  0
    5.6072    3.4306    0.0000 C   0  0  0  0  0  0  0  0  0
    5.6072    4.2556    0.0000 C   0  0  0  0  0  0  0  0  0
    6.3216    4.6681    0.0000 C   0  0  0  0  0  0  0  0  0
    7.0361    4.2556    0.0000 C   0  0  0  0  0  0  0  0  0
    7.0361    3.4306    0.0000 C   0  0  0  0  0  0  0  0  0
    6.3216    3.0181    0.0000 C   0  0  0  0  0  0  0  0  0
  1  2  4  0  0  0  0
  1 28  4  0  0  0  0
  2  3  4  0  0  0  0
  3  4  1  0  0  0  0
  3 27  4  0  0  0  0
  4  5  1  0  0  0  0
  4  9  1  0  0  0  0
  5  6  1  0  0  0  0
  6  7  1  0  0  0  0
  7  8  1  0  0  0  0
  7 10  1  0  0  0  0
  8  9  1  0  0  0  0
 10 11  1  0  0  0  0
 11 12  1  0  0  0  0
 12 13  4  0  0  0  0
 12 26  4  0  0  0  0
 13 14  4  0  0  0  0
 14 15  4  0  0  0  0
 14 18  1  0  0  0  0
 15 16  1  0  0  0  0
 15 25  4  0  0  0  0
 16 17  1  0  0  0  0
 17 18  1  0  0  0  0
 18 19  1  0  0  0  0
 19 20  1  0  0  0  0
 20 21  2  0  0  0  0
 20 22  1  0  0  0  0
 22 23  1  0  0  0  0
 22 24  1  0  0  0  0
 23 24  1  0  0  0  0
 25 26  4  0  0  0  0
 27 28  4  0  0  0  0
 27 32  4  0  0  0  0
 28 29  4  0  0  0  0
 29 30  4  0  0  0  0
 30 31  4  0  0  0  0
 31 32  4  0  0  0  0
M  END
>  <Name_Molregno>
423212

>  <5-HT1A>
7.92

>  <5-HT2A>
9.52

>  <DOPAMINE D2>
7.68

$$$$
423214
  Marvin  02231216192D 0   1.00000     0.00000     0

 32 36  0  0  1  0  0  0  0  0999 V2000
    6.2643    1.8097    0.0000 S   0  0  0  0  0  0  0  0  0
    5.7793    1.1423    0.0000 N   0  0  0  0  0  0  0  0  0
    6.2643    0.4748    0.0000 C   0  0  0  0  0  0  0  0  0
    6.0093   -0.3098    0.0000 N   0  0  0  0  0  0  0  0  0
    6.5614   -0.9229    0.0000 C   0  0  0  0  0  0  0  0  0
    6.3064   -1.7075    0.0000 C   0  0  0  0  0  0  0  0  0
    5.4995   -1.8791    0.0000 N   0  0  0  0  0  0  0  0  0
    4.9474   -1.2660    0.0000 C   0  0  0  0  0  0  0  0  0
    5.2024   -0.4813    0.0000 C   0  0  0  0  0  0  0  0  0
    5.2445   -2.6637    0.0000 C   0  0  0  0  0  0  0  0  0
    4.4375   -2.8352    0.0000 C   0  0  0  0  0  0  0  0  0
    3.8855   -2.2221    0.0000 C   0  0  0  0  0  0  0  0  0
    3.0785   -2.3936    0.0000 C   0  0  0  0  0  0  0  0  0
    2.5265   -1.7805    0.0000 C   0  0  0  0  0  0  0  0  0
    2.7814   -0.9959    0.0000 C   0  0  0  0  0  0  0  0  0
    2.1140   -0.5110    0.0000 C   0  0  0  0  0  0  0  0  0
    1.4466   -0.9959    0.0000 C   0  0  0  0  0  0  0  0  0
    1.7015   -1.7805    0.0000 C   0  0  0  0  0  0  0  0  0
    1.2166   -2.4480    0.0000 N   0  0  0  0  0  0  0  0  0
    0.3961   -2.3617    0.0000 C   0  0  0  0  0  0  0  0  0
    0.0605   -1.6081    0.0000 O   0  0  0  0  0  0  0  0  0
   -0.0888   -3.0292    0.0000 C   0  0  0  0  0  0  0  0  0
   -0.9093   -2.9429    0.0000 C   0  0  0  0  0  0  0  0  0
    0.2467   -3.7829    0.0000 C   0  0  0  0  0  0  0  0  0
    3.5884   -0.8244    0.0000 C   0  0  0  0  0  0  0  0  0
    4.1404   -1.4375    0.0000 C   0  0  0  0  0  0  0  0  0
    7.0489    0.7298    0.0000 C   0  0  0  0  0  0  0  0  0
    7.0489    1.5548    0.0000 C   0  0  0  0  0  0  0  0  0
    7.7634    1.9673    0.0000 C   0  0  0  0  0  0  0  0  0
    8.4778    1.5548    0.0000 C   0  0  0  0  0  0  0  0  0
    8.4778    0.7298    0.0000 C   0  0  0  0  0  0  0  0  0
    7.7634    0.3173    0.0000 C   0  0  0  0  0  0  0  0  0
  1  2  4  0  0  0  0
  1 28  4  0  0  0  0
  2  3  4  0  0  0  0
  3  4  1  0  0  0  0
  3 27  4  0  0  0  0
  4  5  1  0  0  0  0
  4  9  1  0  0  0  0
  5  6  1  0  0  0  0
  6  7  1  0  0  0  0
  7  8  1  0  0  0  0
  7 10  1  0  0  0  0
  8  9  1  0  0  0  0
 10 11  1  0  0  0  0
 11 12  1  0  0  0  0
 12 13  4  0  0  0  0
 12 26  4  0  0  0  0
 13 14  4  0  0  0  0
 14 15  4  0  0  0  0
 14 18  1  0  0  0  0
 15 16  1  0  0  0  0
 15 25  4  0  0  0  0
 16 17  1  0  0  0  0
 17 18  1  0  0  0  0
 18 19  1  0  0  0  0
 19 20  1  0  0  0  0
 20 21  2  0  0  0  0
 20 22  1  0  0  0  0
 22 23  1  0  0  0  0
 22 24  1  0  0  0  0
 25 26  4  0  0  0  0
 27 28  4  0  0  0  0
 27 32  4  0  0  0  0
 28 29  4  0  0  0  0
 29 30  4  0  0  0  0
 30 31  4  0  0  0  0
 31 32  4  0  0  0  0
M  END
>  <Name_Molregno>
423214

>  <5-HT1A>
7.92

>  <5-HT2A>
9.12

>  <DOPAMINE D2>
7.17

$$$$
423215
  Marvin  02231216192D 0   1.00000     0.00000     0

 35 40  0  0  1  0  0  0  0  0999 V2000
   -4.3197    5.4164    0.0000 S   0  0  0  0  0  0  0  0  0
   -4.8046    4.7490    0.0000 N   0  0  0  0  0  0  0  0  0
   -4.3197    4.0815    0.0000 C   0  0  0  0  0  0  0  0  0
   -4.5746    3.2969    0.0000 N   0  0  0  0  0  0  0  0  0
   -4.0226    2.6838    0.0000 C   0  0  0  0  0  0  0  0  0
   -4.2775    1.8992    0.0000 C   0  0  0  0  0  0  0  0  0
   -5.0845    1.7277    0.0000 N   0  0  0  0  0  0  0  0  0
   -5.6365    2.3408    0.0000 C   0  0  0  0  0  0  0  0  0
   -5.3816    3.1254    0.0000 C   0  0  0  0  0  0  0  0  0
   -5.3395    0.9431    0.0000 C   0  0  0  0  0  0  0  0  0
   -6.1464    0.7715    0.0000 C   0  0  0  0  0  0  0  0  0
   -6.4014   -0.0131    0.0000 C   0  0  0  0  0  0  0  0  0
   -5.8493   -0.6262    0.0000 C   0  0  0  0  0  0  0  0  0
   -6.1043   -1.4108    0.0000 C   0  0  0  0  0  0  0  0  0
   -6.9112   -1.5823    0.0000 C   0  0  0  0  0  0  0  0  0
   -6.9975   -2.4028    0.0000 C   0  0  0  0  0  0  0  0  0
   -6.2438   -2.7384    0.0000 C   0  0  0  0  0  0  0  0  0
   -5.6918   -2.1253    0.0000 C   0  0  0  0  0  0  0  0  0
   -4.8713   -2.2115    0.0000 N   0  0  0  0  0  0  0  0  0
   -4.5357   -2.9652    0.0000 C   0  0  0  0  0  0  0  0  0
   -5.0207   -3.6326    0.0000 O   0  0  0  0  0  0  0  0  0
   -3.7152   -3.0514    0.0000 C   0  0  0  0  0  0  0  0  0
   -3.2303   -2.3840    0.0000 C   0  0  0  0  0  0  0  0  0
   -2.4098   -2.4702    0.0000 C   0  0  0  0  0  0  0  0  0
   -2.0743   -3.2239    0.0000 C   0  0  0  0  0  0  0  0  0
   -2.5592   -3.8913    0.0000 C   0  0  0  0  0  0  0  0  0
   -3.3797   -3.8051    0.0000 C   0  0  0  0  0  0  0  0  0
   -7.4633   -0.9692    0.0000 C   0  0  0  0  0  0  0  0  0
   -7.2083   -0.1846    0.0000 C   0  0  0  0  0  0  0  0  0
   -3.5351    4.3365    0.0000 C   0  0  0  0  0  0  0  0  0
   -3.5351    5.1615    0.0000 C   0  0  0  0  0  0  0  0  0
   -2.8206    5.5740    0.0000 C   0  0  0  0  0  0  0  0  0
   -2.1061    5.1615    0.0000 C   0  0  0  0  0  0  0  0  0
   -2.1061    4.3365    0.0000 C   0  0  0  0  0  0  0  0  0
   -2.8206    3.9240    0.0000 C   0  0  0  0  0  0  0  0  0
  1  2  4  0  0  0  0
  1 31  4  0  0  0  0
  2  3  4  0  0  0  0
  3  4  1  0  0  0  0
  3 30  4  0  0  0  0
  4  5  1  0  0  0  0
  4  9  1  0  0  0  0
  5  6  1  0  0  0  0
  6  7  1  0  0  0  0
  7  8  1  0  0  0  0
  7 10  1  0  0  0  0
  8  9  1  0  0  0  0
 10 11  1  0  0  0  0
 11 12  1  0  0  0  0
 12 13  4  0  0  0  0
 12 29  4  0  0  0  0
 13 14  4  0  0  0  0
 14 15  4  0  0  0  0
 14 18  1  0  0  0  0
 15 16  1  0  0  0  0
 15 28  4  0  0  0  0
 16 17  1  0  0  0  0
 17 18  1  0  0  0  0
 18 19  1  0  0  0  0
 19 20  1  0  0  0  0
 20 21  2  0  0  0  0
 20 22  1  0  0  0  0
 22 23  4  0  0  0  0
 22 27  4  0  0  0  0
 23 24  4  0  0  0  0
 24 25  4  0  0  0  0
 25 26  4  0  0  0  0
 26 27  4  0  0  0  0
 28 29  4  0  0  0  0
 30 31  4  0  0  0  0
 30 35  4  0  0  0  0
 31 32  4  0  0  0  0
 32 33  4  0  0  0  0
 33 34  4  0  0  0  0
 34 35  4  0  0  0  0
M  END
>  <Name_Molregno>
423215

>  <5-HT1A>
7.38

>  <5-HT2A>
8.32

>  <DOPAMINE D2>
7.66

$$$$
423217
  Marvin  02231216192D 0   1.00000     0.00000     0

 36 41  0  0  1  0  0  0  0  0999 V2000
   -4.1127    2.9781    0.0000 S   0  0  0  0  0  0  0  0  0
   -4.5977    2.3106    0.0000 N   0  0  0  0  0  0  0  0  0
   -4.1127    1.6432    0.0000 C   0  0  0  0  0  0  0  0  0
   -4.3677    0.8586    0.0000 N   0  0  0  0  0  0  0  0  0
   -3.8156    0.2455    0.0000 C   0  0  0  0  0  0  0  0  0
   -4.0706   -0.5391    0.0000 C   0  0  0  0  0  0  0  0  0
   -4.8776   -0.7107    0.0000 N   0  0  0  0  0  0  0  0  0
   -5.4296   -0.0976    0.0000 C   0  0  0  0  0  0  0  0  0
   -5.1746    0.6870    0.0000 C   0  0  0  0  0  0  0  0  0
   -5.1325   -1.4953    0.0000 C   0  0  0  0  0  0  0  0  0
   -5.9395   -1.6668    0.0000 C   0  0  0  0  0  0  0  0  0
   -6.1944   -2.4514    0.0000 C   0  0  0  0  0  0  0  0  0
   -5.6424   -3.0645    0.0000 C   0  0  0  0  0  0  0  0  0
   -5.8973   -3.8492    0.0000 C   0  0  0  0  0  0  0  0  0
   -6.7043   -4.0207    0.0000 C   0  0  0  0  0  0  0  0  0
   -6.7905   -4.8412    0.0000 C   0  0  0  0  0  0  0  0  0
   -6.0368   -5.1767    0.0000 C   0  0  0  0  0  0  0  0  0
   -5.4848   -4.5636    0.0000 C   0  0  0  0  0  0  0  0  0
   -4.6643   -4.6499    0.0000 N   0  0  0  0  0  0  0  0  0
   -4.3288   -5.4035    0.0000 C   0  0  0  0  0  0  0  0  0
   -4.8137   -6.0710    0.0000 O   0  0  0  0  0  0  0  0  0
   -3.5083   -5.4898    0.0000 C   0  0  0  0  0  0  0  0  0
   -3.0234   -4.8223    0.0000 C   0  0  0  0  0  0  0  0  0
   -2.2029   -4.9086    0.0000 C   0  0  0  0  0  0  0  0  0
   -1.8673   -5.6622    0.0000 C   0  0  0  0  0  0  0  0  0
   -2.3523   -6.3297    0.0000 C   0  0  0  0  0  0  0  0  0
   -3.1727   -6.2434    0.0000 C   0  0  0  0  0  0  0  0  0
   -1.0469   -5.7485    0.0000 C   0  0  0  0  0  0  0  0  0
   -7.2563   -3.4076    0.0000 C   0  0  0  0  0  0  0  0  0
   -7.0014   -2.6230    0.0000 C   0  0  0  0  0  0  0  0  0
   -3.3281    1.8981    0.0000 C   0  0  0  0  0  0  0  0  0
   -3.3281    2.7231    0.0000 C   0  0  0  0  0  0  0  0  0
   -2.6136    3.1356    0.0000 C   0  0  0  0  0  0  0  0  0
   -1.8992    2.7231    0.0000 C   0  0  0  0  0  0  0  0  0
   -1.8992    1.8981    0.0000 C   0  0  0  0  0  0  0  0  0
   -2.6136    1.4856    0.0000 C   0  0  0  0  0  0  0  0  0
  1  2  4  0  0  0  0
  1 32  4  0  0  0  0
  2  3  4  0  0  0  0
  3  4  1  0  0  0  0
  3 31  4  0  0  0  0
  4  5  1  0  0  0  0
  4  9  1  0  0  0  0
  5  6  1  0  0  0  0
  6  7  1  0  0  0  0
  7  8  1  0  0  0  0
  7 10  1  0  0  0  0
  8  9  1  0  0  0  0
 10 11  1  0  0  0  0
 11 12  1  0  0  0  0
 12 13  4  0  0  0  0
 12 30  4  0  0  0  0
 13 14  4  0  0  0  0
 14 15  4  0  0  0  0
 14 18  1  0  0  0  0
 15 16  1  0  0  0  0
 15 29  4  0  0  0  0
 16 17  1  0  0  0  0
 17 18  1  0  0  0  0
 18 19  1  0  0  0  0
 19 20  1  0  0  0  0
 20 21  2  0  0  0  0
 20 22  1  0  0  0  0
 22 23  4  0  0  0  0
 22 27  4  0  0  0  0
 23 24  4  0  0  0  0
 24 25  4  0  0  0  0
 25 26  4  0  0  0  0
 25 28  1  0  0  0  0
 26 27  4  0  0  0  0
 29 30  4  0  0  0  0
 31 32  4  0  0  0  0
 31 36  4  0  0  0  0
 32 33  4  0  0  0  0
 33 34  4  0  0  0  0
 34 35  4  0  0  0  0
 35 36  4  0  0  0  0
M  END
>  <Name_Molregno>
423217

>  <5-HT1A>
7.55

>  <5-HT2A>
8.52

>  <DOPAMINE D2>
7.82

$$$$
423219
  Marvin  02231216192D 0   1.00000     0.00000     0

 36 41  0  0  1  0  0  0  0  0999 V2000
    8.5567    1.6489    0.0000 Cl  0  0  0  0  0  0  0  0  0
    7.7362    1.5626    0.0000 C   0  0  0  0  0  0  0  0  0
    7.4007    0.8089    0.0000 C   0  0  0  0  0  0  0  0  0
    6.5802    0.7227    0.0000 C   0  0  0  0  0  0  0  0  0
    6.0953    1.3901    0.0000 C   0  0  0  0  0  0  0  0  0
    6.4308    2.1438    0.0000 C   0  0  0  0  0  0  0  0  0
    7.2513    2.2301    0.0000 C   0  0  0  0  0  0  0  0  0
    5.2748    1.3039    0.0000 C   0  0  0  0  0  0  0  0  0
    4.7899    1.9713    0.0000 O   0  0  0  0  0  0  0  0  0
    4.9392    0.5502    0.0000 N   0  0  0  0  0  0  0  0  0
    4.1188    0.4640    0.0000 C   0  0  0  0  0  0  0  0  0
    3.5667    1.0771    0.0000 C   0  0  0  0  0  0  0  0  0
    2.8131    0.7415    0.0000 C   0  0  0  0  0  0  0  0  0
    2.8993   -0.0789    0.0000 C   0  0  0  0  0  0  0  0  0
    3.7063   -0.2505    0.0000 C   0  0  0  0  0  0  0  0  0
    3.9612   -1.0351    0.0000 C   0  0  0  0  0  0  0  0  0
    3.4092   -1.6482    0.0000 C   0  0  0  0  0  0  0  0  0
    2.6022   -1.4767    0.0000 C   0  0  0  0  0  0  0  0  0
    2.3473   -0.6920    0.0000 C   0  0  0  0  0  0  0  0  0
    3.6641   -2.4328    0.0000 C   0  0  0  0  0  0  0  0  0
    4.4711   -2.6043    0.0000 C   0  0  0  0  0  0  0  0  0
    4.7260   -3.3890    0.0000 N   0  0  0  0  0  0  0  0  0
    5.5330   -3.5605    0.0000 C   0  0  0  0  0  0  0  0  0
    5.7879   -4.3451    0.0000 C   0  0  0  0  0  0  0  0  0
    5.2359   -4.9582    0.0000 N   0  0  0  0  0  0  0  0  0
    4.4289   -4.7867    0.0000 C   0  0  0  0  0  0  0  0  0
    4.1740   -4.0021    0.0000 C   0  0  0  0  0  0  0  0  0
    5.4908   -5.7428    0.0000 C   0  0  0  0  0  0  0  0  0
    5.0059   -6.4103    0.0000 N   0  0  0  0  0  0  0  0  0
    5.4908   -7.0777    0.0000 S   0  0  0  0  0  0  0  0  0
    6.2755   -6.8228    0.0000 C   0  0  0  0  0  0  0  0  0
    6.2755   -5.9978    0.0000 C   0  0  0  0  0  0  0  0  0
    6.9899   -5.5853    0.0000 C   0  0  0  0  0  0  0  0  0
    7.7044   -5.9978    0.0000 C   0  0  0  0  0  0  0  0  0
    7.7044   -6.8228    0.0000 C   0  0  0  0  0  0  0  0  0
    6.9899   -7.2353    0.0000 C   0  0  0  0  0  0  0  0  0
  1  2  1  0  0  0  0
  2  3  4  0  0  0  0
  2  7  4  0  0  0  0
  3  4  4  0  0  0  0
  4  5  4  0  0  0  0
  5  6  4  0  0  0  0
  5  8  1  0  0  0  0
  6  7  4  0  0  0  0
  8  9  2  0  0  0  0
  8 10  1  0  0  0  0
 10 11  1  0  0  0  0
 11 12  1  0  0  0  0
 11 15  1  0  0  0  0
 12 13  1  0  0  0  0
 13 14  1  0  0  0  0
 14 15  4  0  0  0  0
 14 19  4  0  0  0  0
 15 16  4  0  0  0  0
 16 17  4  0  0  0  0
 17 18  4  0  0  0  0
 17 20  1  0  0  0  0
 18 19  4  0  0  0  0
 20 21  1  0  0  0  0
 21 22  1  0  0  0  0
 22 23  1  0  0  0  0
 22 27  1  0  0  0  0
 23 24  1  0  0  0  0
 24 25  1  0  0  0  0
 25 26  1  0  0  0  0
 25 28  1  0  0  0  0
 26 27  1  0  0  0  0
 28 29  4  0  0  0  0
 28 32  4  0  0  0  0
 29 30  4  0  0  0  0
 30 31  4  0  0  0  0
 31 32  4  0  0  0  0
 31 36  4  0  0  0  0
 32 33  4  0  0  0  0
 33 34  4  0  0  0  0
 34 35  4  0  0  0  0
 35 36  4  0  0  0  0
M  END
>  <Name_Molregno>
423219

>  <5-HT1A>
7.25

>  <5-HT2A>
10

>  <DOPAMINE D2>
8.3

$$$$
423220
  Marvin  02231216192D 0   1.00000     0.00000     0

 36 41  0  0  1  0  0  0  0  0999 V2000
   -4.1127    2.9781    0.0000 S   0  0  0  0  0  0  0  0  0
   -4.5977    2.3106    0.0000 N   0  0  0  0  0  0  0  0  0
   -4.1127    1.6432    0.0000 C   0  0  0  0  0  0  0  0  0
   -4.3677    0.8586    0.0000 N   0  0  0  0  0  0  0  0  0
   -3.8156    0.2455    0.0000 C   0  0  0  0  0  0  0  0  0
   -4.0706   -0.5391    0.0000 C   0  0  0  0  0  0  0  0  0
   -4.8776   -0.7107    0.0000 N   0  0  0  0  0  0  0  0  0
   -5.4296   -0.0976    0.0000 C   0  0  0  0  0  0  0  0  0
   -5.1746    0.6870    0.0000 C   0  0  0  0  0  0  0  0  0
   -5.1325   -1.4953    0.0000 C   0  0  0  0  0  0  0  0  0
   -5.9395   -1.6668    0.0000 C   0  0  0  0  0  0  0  0  0
   -6.1944   -2.4514    0.0000 C   0  0  0  0  0  0  0  0  0
   -5.6424   -3.0645    0.0000 C   0  0  0  0  0  0  0  0  0
   -5.8973   -3.8492    0.0000 C   0  0  0  0  0  0  0  0  0
   -6.7043   -4.0207    0.0000 C   0  0  0  0  0  0  0  0  0
   -6.7905   -4.8412    0.0000 C   0  0  0  0  0  0  0  0  0
   -6.0368   -5.1767    0.0000 C   0  0  0  0  0  0  0  0  0
   -5.4848   -4.5636    0.0000 C   0  0  0  0  0  0  0  0  0
   -4.6643   -4.6499    0.0000 N   0  0  0  0  0  0  0  0  0
   -4.3288   -5.4035    0.0000 C   0  0  0  0  0  0  0  0  0
   -4.8137   -6.0710    0.0000 O   0  0  0  0  0  0  0  0  0
   -3.5083   -5.4898    0.0000 C   0  0  0  0  0  0  0  0  0
   -3.0234   -4.8223    0.0000 C   0  0  0  0  0  0  0  0  0
   -2.2029   -4.9086    0.0000 C   0  0  0  0  0  0  0  0  0
   -1.8673   -5.6622    0.0000 C   0  0  0  0  0  0  0  0  0
   -1.0469   -5.7485    0.0000 F   0  0  0  0  0  0  0  0  0
   -2.3523   -6.3297    0.0000 C   0  0  0  0  0  0  0  0  0
   -3.1727   -6.2434    0.0000 C   0  0  0  0  0  0  0  0  0
   -7.2563   -3.4076    0.0000 C   0  0  0  0  0  0  0  0  0
   -7.0014   -2.6230    0.0000 C   0  0  0  0  0  0  0  0  0
   -3.3281    1.8981    0.0000 C   0  0  0  0  0  0  0  0  0
   -3.3281    2.7231    0.0000 C   0  0  0  0  0  0  0  0  0
   -2.6136    3.1356    0.0000 C   0  0  0  0  0  0  0  0  0
   -1.8992    2.7231    0.0000 C   0  0  0  0  0  0  0  0  0
   -1.8992    1.8981    0.0000 C   0  0  0  0  0  0  0  0  0
   -2.6136    1.4856    0.0000 C   0  0  0  0  0  0  0  0  0
  1  2  4  0  0  0  0
  1 32  4  0  0  0  0
  2  3  4  0  0  0  0
  3  4  1  0  0  0  0
  3 31  4  0  0  0  0
  4  5  1  0  0  0  0
  4  9  1  0  0  0  0
  5  6  1  0  0  0  0
  6  7  1  0  0  0  0
  7  8  1  0  0  0  0
  7 10  1  0  0  0  0
  8  9  1  0  0  0  0
 10 11  1  0  0  0  0
 11 12  1  0  0  0  0
 12 13  4  0  0  0  0
 12 30  4  0  0  0  0
 13 14  4  0  0  0  0
 14 15  4  0  0  0  0
 14 18  1  0  0  0  0
 15 16  1  0  0  0  0
 15 29  4  0  0  0  0
 16 17  1  0  0  0  0
 17 18  1  0  0  0  0
 18 19  1  0  0  0  0
 19 20  1  0  0  0  0
 20 21  2  0  0  0  0
 20 22  1  0  0  0  0
 22 23  4  0  0  0  0
 22 28  4  0  0  0  0
 23 24  4  0  0  0  0
 24 25  4  0  0  0  0
 25 26  1  0  0  0  0
 25 27  4  0  0  0  0
 27 28  4  0  0  0  0
 29 30  4  0  0  0  0
 31 32  4  0  0  0  0
 31 36  4  0  0  0  0
 32 33  4  0  0  0  0
 33 34  4  0  0  0  0
 34 35  4  0  0  0  0
 35 36  4  0  0  0  0
M  END
>  <Name_Molregno>
423220

>  <5-HT1A>
7.18

>  <5-HT2A>
8.61

>  <DOPAMINE D2>
8.22

$$$$
423222
  Marvin  02231216192D 0   1.00000     0.00000     0

 35 40  0  0  1  0  0  0  0  0999 V2000
   -4.3197    5.4164    0.0000 S   0  0  0  0  0  0  0  0  0
   -4.8046    4.7490    0.0000 N   0  0  0  0  0  0  0  0  0
   -4.3197    4.0815    0.0000 C   0  0  0  0  0  0  0  0  0
   -4.5746    3.2969    0.0000 N   0  0  0  0  0  0  0  0  0
   -4.0226    2.6838    0.0000 C   0  0  0  0  0  0  0  0  0
   -4.2775    1.8992    0.0000 C   0  0  0  0  0  0  0  0  0
   -5.0845    1.7277    0.0000 N   0  0  0  0  0  0  0  0  0
   -5.6365    2.3408    0.0000 C   0  0  0  0  0  0  0  0  0
   -5.3816    3.1254    0.0000 C   0  0  0  0  0  0  0  0  0
   -5.3395    0.9431    0.0000 C   0  0  0  0  0  0  0  0  0
   -6.1464    0.7715    0.0000 C   0  0  0  0  0  0  0  0  0
   -6.4014   -0.0131    0.0000 C   0  0  0  0  0  0  0  0  0
   -5.8493   -0.6262    0.0000 C   0  0  0  0  0  0  0  0  0
   -6.1043   -1.4108    0.0000 C   0  0  0  0  0  0  0  0  0
   -6.9112   -1.5823    0.0000 C   0  0  0  0  0  0  0  0  0
   -6.9975   -2.4028    0.0000 C   0  0  0  0  0  0  0  0  0
   -6.2438   -2.7384    0.0000 C   0  0  0  0  0  0  0  0  0
   -5.6918   -2.1253    0.0000 C   0  0  0  0  0  0  0  0  0
   -4.8713   -2.2115    0.0000 N   0  0  0  0  0  0  0  0  0
   -4.5357   -2.9652    0.0000 C   0  0  0  0  0  0  0  0  0
   -5.0207   -3.6326    0.0000 O   0  0  0  0  0  0  0  0  0
   -3.7152   -3.0514    0.0000 C   0  0  0  0  0  0  0  0  0
   -3.2303   -2.3840    0.0000 C   0  0  0  0  0  0  0  0  0
   -2.4098   -2.4702    0.0000 C   0  0  0  0  0  0  0  0  0
   -2.0743   -3.2239    0.0000 C   0  0  0  0  0  0  0  0  0
   -2.5592   -3.8913    0.0000 N   0  0  0  0  0  0  0  0  0
   -3.3797   -3.8051    0.0000 C   0  0  0  0  0  0  0  0  0
   -7.4633   -0.9692    0.0000 C   0  0  0  0  0  0  0  0  0
   -7.2083   -0.1846    0.0000 C   0  0  0  0  0  0  0  0  0
   -3.5351    4.3365    0.0000 C   0  0  0  0  0  0  0  0  0
   -3.5351    5.1615    0.0000 C   0  0  0  0  0  0  0  0  0
   -2.8206    5.5740    0.0000 C   0  0  0  0  0  0  0  0  0
   -2.1061    5.1615    0.0000 C   0  0  0  0  0  0  0  0  0
   -2.1061    4.3365    0.0000 C   0  0  0  0  0  0  0  0  0
   -2.8206    3.9240    0.0000 C   0  0  0  0  0  0  0  0  0
  1  2  4  0  0  0  0
  1 31  4  0  0  0  0
  2  3  4  0  0  0  0
  3  4  1  0  0  0  0
  3 30  4  0  0  0  0
  4  5  1  0  0  0  0
  4  9  1  0  0  0  0
  5  6  1  0  0  0  0
  6  7  1  0  0  0  0
  7  8  1  0  0  0  0
  7 10  1  0  0  0  0
  8  9  1  0  0  0  0
 10 11  1  0  0  0  0
 11 12  1  0  0  0  0
 12 13  4  0  0  0  0
 12 29  4  0  0  0  0
 13 14  4  0  0  0  0
 14 15  4  0  0  0  0
 14 18  1  0  0  0  0
 15 16  1  0  0  0  0
 15 28  4  0  0  0  0
 16 17  1  0  0  0  0
 17 18  1  0  0  0  0
 18 19  1  0  0  0  0
 19 20  1  0  0  0  0
 20 21  2  0  0  0  0
 20 22  1  0  0  0  0
 22 23  4  0  0  0  0
 22 27  4  0  0  0  0
 23 24  4  0  0  0  0
 24 25  4  0  0  0  0
 25 26  4  0  0  0  0
 26 27  4  0  0  0  0
 28 29  4  0  0  0  0
 30 31  4  0  0  0  0
 30 35  4  0  0  0  0
 31 32  4  0  0  0  0
 32 33  4  0  0  0  0
 33 34  4  0  0  0  0
 34 35  4  0  0  0  0
M  END
>  <Name_Molregno>
423222

>  <5-HT1A>
8.35

>  <5-HT2A>
9.02

>  <DOPAMINE D2>
8.22

$$$$
423225
  Marvin  02231216192D 0   1.00000     0.00000     0

 36 41  0  0  1  0  0  0  0  0999 V2000
    7.7141    2.3142    0.0000 S   0  0  0  0  0  0  0  0  0
    7.2292    1.6468    0.0000 N   0  0  0  0  0  0  0  0  0
    7.7141    0.9793    0.0000 C   0  0  0  0  0  0  0  0  0
    7.4591    0.1947    0.0000 N   0  0  0  0  0  0  0  0  0
    8.0112   -0.4184    0.0000 C   0  0  0  0  0  0  0  0  0
    7.7562   -1.2030    0.0000 C   0  0  0  0  0  0  0  0  0
    6.9493   -1.3746    0.0000 N   0  0  0  0  0  0  0  0  0
    6.3972   -0.7615    0.0000 C   0  0  0  0  0  0  0  0  0
    6.6522    0.0232    0.0000 C   0  0  0  0  0  0  0  0  0
    6.6943   -2.1592    0.0000 C   0  0  0  0  0  0  0  0  0
    5.8873   -2.3307    0.0000 C   0  0  0  0  0  0  0  0  0
    5.3353   -1.7176    0.0000 C   0  0  0  0  0  0  0  0  0
    4.5283   -1.8891    0.0000 C   0  0  0  0  0  0  0  0  0
    3.9763   -1.2760    0.0000 C   0  0  0  0  0  0  0  0  0
    4.2312   -0.4914    0.0000 C   0  0  0  0  0  0  0  0  0
    3.5638   -0.0065    0.0000 C   0  0  0  0  0  0  0  0  0
    2.8964   -0.4914    0.0000 C   0  0  0  0  0  0  0  0  0
    3.1513   -1.2760    0.0000 C   0  0  0  0  0  0  0  0  0
    2.6664   -1.9435    0.0000 N   0  0  0  0  0  0  0  0  0
    1.8459   -1.8572    0.0000 C   0  0  0  0  0  0  0  0  0
    1.5103   -1.1036    0.0000 O   0  0  0  0  0  0  0  0  0
    1.3610   -2.5247    0.0000 C   0  0  0  0  0  0  0  0  0
    0.5405   -2.4384    0.0000 C   0  0  0  0  0  0  0  0  0
    0.0556   -3.1059    0.0000 C   0  0  0  0  0  0  0  0  0
   -0.7649   -3.0196    0.0000 C   0  0  0  0  0  0  0  0  0
   -1.1005   -2.2660    0.0000 C   0  0  0  0  0  0  0  0  0
   -0.6155   -1.5985    0.0000 C   0  0  0  0  0  0  0  0  0
    0.2049   -1.6848    0.0000 C   0  0  0  0  0  0  0  0  0
    5.0382   -0.3199    0.0000 C   0  0  0  0  0  0  0  0  0
    5.5903   -0.9330    0.0000 C   0  0  0  0  0  0  0  0  0
    8.4987    1.2343    0.0000 C   0  0  0  0  0  0  0  0  0
    8.4987    2.0593    0.0000 C   0  0  0  0  0  0  0  0  0
    9.2132    2.4718    0.0000 C   0  0  0  0  0  0  0  0  0
    9.9276    2.0593    0.0000 C   0  0  0  0  0  0  0  0  0
    9.9276    1.2343    0.0000 C   0  0  0  0  0  0  0  0  0
    9.2132    0.8218    0.0000 C   0  0  0  0  0  0  0  0  0
  1  2  4  0  0  0  0
  1 32  4  0  0  0  0
  2  3  4  0  0  0  0
  3  4  1  0  0  0  0
  3 31  4  0  0  0  0
  4  5  1  0  0  0  0
  4  9  1  0  0  0  0
  5  6  1  0  0  0  0
  6  7  1  0  0  0  0
  7  8  1  0  0  0  0
  7 10  1  0  0  0  0
  8  9  1  0  0  0  0
 10 11  1  0  0  0  0
 11 12  1  0  0  0  0
 12 13  4  0  0  0  0
 12 30  4  0  0  0  0
 13 14  4  0  0  0  0
 14 15  4  0  0  0  0
 14 18  1  0  0  0  0
 15 16  1  0  0  0  0
 15 29  4  0  0  0  0
 16 17  1  0  0  0  0
 17 18  1  0  0  0  0
 18 19  1  0  0  0  0
 19 20  1  0  0  0  0
 20 21  2  0  0  0  0
 20 22  1  0  0  0  0
 22 23  1  0  0  0  0
 23 24  4  0  0  0  0
 23 28  4  0  0  0  0
 24 25  4  0  0  0  0
 25 26  4  0  0  0  0
 26 27  4  0  0  0  0
 27 28  4  0  0  0  0
 29 30  4  0  0  0  0
 31 32  4  0  0  0  0
 31 36  4  0  0  0  0
 32 33  4  0  0  0  0
 33 34  4  0  0  0  0
 34 35  4  0  0  0  0
 35 36  4  0  0  0  0
M  END
>  <Name_Molregno>
423225

>  <5-HT1A>
7.68

>  <5-HT2A>
10.4

>  <DOPAMINE D2>
7.59

$$$$
423235
  Marvin  02231216192D 0   1.00000     0.00000     0

 37 42  0  0  1  0  0  0  0  0999 V2000
    6.5609   -0.1533    0.0000 S   0  0  0  0  0  0  0  0  0
    6.0760   -0.8208    0.0000 N   0  0  0  0  0  0  0  0  0
    6.5609   -1.4882    0.0000 C   0  0  0  0  0  0  0  0  0
    6.3060   -2.2728    0.0000 N   0  0  0  0  0  0  0  0  0
    6.8580   -2.8859    0.0000 C   0  0  0  0  0  0  0  0  0
    6.6031   -3.6705    0.0000 C   0  0  0  0  0  0  0  0  0
    5.7961   -3.8421    0.0000 N   0  0  0  0  0  0  0  0  0
    5.2441   -3.2290    0.0000 C   0  0  0  0  0  0  0  0  0
    5.4990   -2.4443    0.0000 C   0  0  0  0  0  0  0  0  0
    5.5412   -4.6267    0.0000 C   0  0  0  0  0  0  0  0  0
    4.7342   -4.7982    0.0000 C   0  0  0  0  0  0  0  0  0
    4.1822   -4.1851    0.0000 C   0  0  0  0  0  0  0  0  0
    3.3752   -4.3566    0.0000 C   0  0  0  0  0  0  0  0  0
    2.8232   -3.7436    0.0000 C   0  0  0  0  0  0  0  0  0
    3.0781   -2.9589    0.0000 C   0  0  0  0  0  0  0  0  0
    2.4107   -2.4740    0.0000 C   0  0  0  0  0  0  0  0  0
    1.7432   -2.9589    0.0000 C   0  0  0  0  0  0  0  0  0
    1.9982   -3.7436    0.0000 C   0  0  0  0  0  0  0  0  0
    1.5132   -4.4110    0.0000 N   0  0  0  0  0  0  0  0  0
    0.6928   -4.3248    0.0000 C   0  0  0  0  0  0  0  0  0
    0.3572   -3.5711    0.0000 O   0  0  0  0  0  0  0  0  0
    0.2078   -4.9922    0.0000 C   0  0  0  0  0  0  0  0  0
   -0.6126   -4.9060    0.0000 C   0  0  0  0  0  0  0  0  0
   -1.0976   -5.5734    0.0000 C   0  0  0  0  0  0  0  0  0
   -0.7620   -6.3271    0.0000 C   0  0  0  0  0  0  0  0  0
   -1.2469   -6.9945    0.0000 C   0  0  0  0  0  0  0  0  0
   -2.0674   -6.9083    0.0000 C   0  0  0  0  0  0  0  0  0
   -2.4030   -6.1546    0.0000 C   0  0  0  0  0  0  0  0  0
   -1.9180   -5.4872    0.0000 C   0  0  0  0  0  0  0  0  0
    3.8851   -2.7874    0.0000 C   0  0  0  0  0  0  0  0  0
    4.4371   -3.4005    0.0000 C   0  0  0  0  0  0  0  0  0
    7.3455   -1.2333    0.0000 C   0  0  0  0  0  0  0  0  0
    7.3455   -0.4083    0.0000 C   0  0  0  0  0  0  0  0  0
    8.0600    0.0042    0.0000 C   0  0  0  0  0  0  0  0  0
    8.7745   -0.4083    0.0000 C   0  0  0  0  0  0  0  0  0
    8.7745   -1.2333    0.0000 C   0  0  0  0  0  0  0  0  0
    8.0600   -1.6458    0.0000 C   0  0  0  0  0  0  0  0  0
  1  2  4  0  0  0  0
  1 33  4  0  0  0  0
  2  3  4  0  0  0  0
  3  4  1  0  0  0  0
  3 32  4  0  0  0  0
  4  5  1  0  0  0  0
  4  9  1  0  0  0  0
  5  6  1  0  0  0  0
  6  7  1  0  0  0  0
  7  8  1  0  0  0  0
  7 10  1  0  0  0  0
  8  9  1  0  0  0  0
 10 11  1  0  0  0  0
 11 12  1  0  0  0  0
 12 13  4  0  0  0  0
 12 31  4  0  0  0  0
 13 14  4  0  0  0  0
 14 15  4  0  0  0  0
 14 18  1  0  0  0  0
 15 16  1  0  0  0  0
 15 30  4  0  0  0  0
 16 17  1  0  0  0  0
 17 18  1  0  0  0  0
 18 19  1  0  0  0  0
 19 20  1  0  0  0  0
 20 21  2  0  0  0  0
 20 22  1  0  0  0  0
 22 23  1  0  0  0  0
 23 24  1  0  0  0  0
 24 25  4  0  0  0  0
 24 29  4  0  0  0  0
 25 26  4  0  0  0  0
 26 27  4  0  0  0  0
 27 28  4  0  0  0  0
 28 29  4  0  0  0  0
 30 31  4  0  0  0  0
 32 33  4  0  0  0  0
 32 37  4  0  0  0  0
 33 34  4  0  0  0  0
 34 35  4  0  0  0  0
 35 36  4  0  0  0  0
 36 37  4  0  0  0  0
M  END
>  <Name_Molregno>
423235

>  <5-HT1A>
7.43

>  <5-HT2A>
9.02

>  <DOPAMINE D2>
7.48

$$$$
423248
  Marvin  02231216192D 0   1.00000     0.00000     0

 34 39  0  0  1  0  0  0  0  0999 V2000
    4.8459    3.9713    0.0000 S   0  0  0  0  0  0  0  0  0
    4.3610    3.3039    0.0000 N   0  0  0  0  0  0  0  0  0
    4.8459    2.6364    0.0000 C   0  0  0  0  0  0  0  0  0
    4.5910    1.8518    0.0000 N   0  0  0  0  0  0  0  0  0
    5.1430    1.2387    0.0000 C   0  0  0  0  0  0  0  0  0
    4.8881    0.4541    0.0000 C   0  0  0  0  0  0  0  0  0
    4.0811    0.2826    0.0000 N   0  0  0  0  0  0  0  0  0
    3.5291    0.8957    0.0000 C   0  0  0  0  0  0  0  0  0
    3.7840    1.6803    0.0000 C   0  0  0  0  0  0  0  0  0
    3.8262   -0.5020    0.0000 C   0  0  0  0  0  0  0  0  0
    3.0192   -0.6736    0.0000 C   0  0  0  0  0  0  0  0  0
    2.7642   -1.4582    0.0000 C   0  0  0  0  0  0  0  0  0
    3.3163   -2.0713    0.0000 C   0  0  0  0  0  0  0  0  0
    3.0613   -2.8559    0.0000 C   0  0  0  0  0  0  0  0  0
    2.2544   -3.0274    0.0000 C   0  0  0  0  0  0  0  0  0
    2.1681   -3.8479    0.0000 C   0  0  0  0  0  0  0  0  0
    2.9218   -4.1835    0.0000 C   0  0  0  0  0  0  0  0  0
    3.4738   -3.5704    0.0000 C   0  0  0  0  0  0  0  0  0
    4.2943   -3.6566    0.0000 N   0  0  0  0  0  0  0  0  0
    4.6299   -4.4103    0.0000 C   0  0  0  0  0  0  0  0  0
    4.1449   -5.0777    0.0000 O   0  0  0  0  0  0  0  0  0
    5.4504   -4.4965    0.0000 C   0  0  0  0  0  0  0  0  0
    6.0024   -3.8834    0.0000 O   0  0  0  0  0  0  0  0  0
    6.7561   -4.2190    0.0000 C   0  0  0  0  0  0  0  0  0
    6.6698   -5.0395    0.0000 C   0  0  0  0  0  0  0  0  0
    5.8629   -5.2110    0.0000 C   0  0  0  0  0  0  0  0  0
    1.7023   -2.4143    0.0000 C   0  0  0  0  0  0  0  0  0
    1.9573   -1.6297    0.0000 C   0  0  0  0  0  0  0  0  0
    5.6305    2.8914    0.0000 C   0  0  0  0  0  0  0  0  0
    5.6305    3.7164    0.0000 C   0  0  0  0  0  0  0  0  0
    6.3450    4.1289    0.0000 C   0  0  0  0  0  0  0  0  0
    7.0595    3.7164    0.0000 C   0  0  0  0  0  0  0  0  0
    7.0595    2.8914    0.0000 C   0  0  0  0  0  0  0  0  0
    6.3450    2.4789    0.0000 C   0  0  0  0  0  0  0  0  0
  1  2  4  0  0  0  0
  1 30  4  0  0  0  0
  2  3  4  0  0  0  0
  3  4  1  0  0  0  0
  3 29  4  0  0  0  0
  4  5  1  0  0  0  0
  4  9  1  0  0  0  0
  5  6  1  0  0  0  0
  6  7  1  0  0  0  0
  7  8  1  0  0  0  0
  7 10  1  0  0  0  0
  8  9  1  0  0  0  0
 10 11  1  0  0  0  0
 11 12  1  0  0  0  0
 12 13  4  0  0  0  0
 12 28  4  0  0  0  0
 13 14  4  0  0  0  0
 14 15  4  0  0  0  0
 14 18  1  0  0  0  0
 15 16  1  0  0  0  0
 15 27  4  0  0  0  0
 16 17  1  0  0  0  0
 17 18  1  0  0  0  0
 18 19  1  0  0  0  0
 19 20  1  0  0  0  0
 20 21  2  0  0  0  0
 20 22  1  0  0  0  0
 22 23  4  0  0  0  0
 22 26  4  0  0  0  0
 23 24  4  0  0  0  0
 24 25  4  0  0  0  0
 25 26  4  0  0  0  0
 27 28  4  0  0  0  0
 29 30  4  0  0  0  0
 29 34  4  0  0  0  0
 30 31  4  0  0  0  0
 31 32  4  0  0  0  0
 32 33  4  0  0  0  0
 33 34  4  0  0  0  0
M  END
>  <Name_Molregno>
423248

>  <5-HT1A>
8.1

>  <5-HT2A>
9.26

>  <DOPAMINE D2>
8.3

$$$$
423265
  Marvin  02231216192D 0   1.00000     0.00000     0

 34 39  0  0  1  0  0  0  0  0999 V2000
    4.8459    3.9713    0.0000 S   0  0  0  0  0  0  0  0  0
    4.3610    3.3039    0.0000 N   0  0  0  0  0  0  0  0  0
    4.8459    2.6364    0.0000 C   0  0  0  0  0  0  0  0  0
    4.5910    1.8518    0.0000 N   0  0  0  0  0  0  0  0  0
    5.1430    1.2387    0.0000 C   0  0  0  0  0  0  0  0  0
    4.8881    0.4541    0.0000 C   0  0  0  0  0  0  0  0  0
    4.0811    0.2826    0.0000 N   0  0  0  0  0  0  0  0  0
    3.5291    0.8957    0.0000 C   0  0  0  0  0  0  0  0  0
    3.7840    1.6803    0.0000 C   0  0  0  0  0  0  0  0  0
    3.8262   -0.5020    0.0000 C   0  0  0  0  0  0  0  0  0
    3.0192   -0.6736    0.0000 C   0  0  0  0  0  0  0  0  0
    2.7642   -1.4582    0.0000 C   0  0  0  0  0  0  0  0  0
    3.3163   -2.0713    0.0000 C   0  0  0  0  0  0  0  0  0
    3.0613   -2.8559    0.0000 C   0  0  0  0  0  0  0  0  0
    2.2544   -3.0274    0.0000 C   0  0  0  0  0  0  0  0  0
    2.1681   -3.8479    0.0000 C   0  0  0  0  0  0  0  0  0
    2.9218   -4.1835    0.0000 C   0  0  0  0  0  0  0  0  0
    3.4738   -3.5704    0.0000 C   0  0  0  0  0  0  0  0  0
    4.2943   -3.6566    0.0000 N   0  0  0  0  0  0  0  0  0
    4.6299   -4.4103    0.0000 C   0  0  0  0  0  0  0  0  0
    4.1449   -5.0777    0.0000 O   0  0  0  0  0  0  0  0  0
    5.4504   -4.4965    0.0000 C   0  0  0  0  0  0  0  0  0
    6.0024   -3.8834    0.0000 O   0  0  0  0  0  0  0  0  0
    6.7561   -4.2190    0.0000 N   0  0  0  0  0  0  0  0  0
    6.6698   -5.0395    0.0000 C   0  0  0  0  0  0  0  0  0
    5.8629   -5.2110    0.0000 C   0  0  0  0  0  0  0  0  0
    1.7023   -2.4143    0.0000 C   0  0  0  0  0  0  0  0  0
    1.9573   -1.6297    0.0000 C   0  0  0  0  0  0  0  0  0
    5.6305    2.8914    0.0000 C   0  0  0  0  0  0  0  0  0
    5.6305    3.7164    0.0000 C   0  0  0  0  0  0  0  0  0
    6.3450    4.1289    0.0000 C   0  0  0  0  0  0  0  0  0
    7.0595    3.7164    0.0000 C   0  0  0  0  0  0  0  0  0
    7.0595    2.8914    0.0000 C   0  0  0  0  0  0  0  0  0
    6.3450    2.4789    0.0000 C   0  0  0  0  0  0  0  0  0
  1  2  4  0  0  0  0
  1 30  4  0  0  0  0
  2  3  4  0  0  0  0
  3  4  1  0  0  0  0
  3 29  4  0  0  0  0
  4  5  1  0  0  0  0
  4  9  1  0  0  0  0
  5  6  1  0  0  0  0
  6  7  1  0  0  0  0
  7  8  1  0  0  0  0
  7 10  1  0  0  0  0
  8  9  1  0  0  0  0
 10 11  1  0  0  0  0
 11 12  1  0  0  0  0
 12 13  4  0  0  0  0
 12 28  4  0  0  0  0
 13 14  4  0  0  0  0
 14 15  4  0  0  0  0
 14 18  1  0  0  0  0
 15 16  1  0  0  0  0
 15 27  4  0  0  0  0
 16 17  1  0  0  0  0
 17 18  1  0  0  0  0
 18 19  1  0  0  0  0
 19 20  1  0  0  0  0
 20 21  2  0  0  0  0
 20 22  1  0  0  0  0
 22 23  4  0  0  0  0
 22 26  4  0  0  0  0
 23 24  4  0  0  0  0
 24 25  4  0  0  0  0
 25 26  4  0  0  0  0
 27 28  4  0  0  0  0
 29 30  4  0  0  0  0
 29 34  4  0  0  0  0
 30 31  4  0  0  0  0
 31 32  4  0  0  0  0
 32 33  4  0  0  0  0
 33 34  4  0  0  0  0
M  END
>  <Name_Molregno>
423265

>  <5-HT1A>
8.19

>  <5-HT2A>
10.1

>  <DOPAMINE D2>
8.52

$$$$
423267
  Marvin  02231216192D 0   1.00000     0.00000     0

 33 37  0  0  1  0  0  0  0  0999 V2000
    6.1288    4.0507    0.0000 S   0  0  0  0  0  0  0  0  0
    5.6439    3.3833    0.0000 N   0  0  0  0  0  0  0  0  0
    6.1288    2.7158    0.0000 C   0  0  0  0  0  0  0  0  0
    5.8739    1.9312    0.0000 N   0  0  0  0  0  0  0  0  0
    6.4259    1.3181    0.0000 C   0  0  0  0  0  0  0  0  0
    6.1710    0.5335    0.0000 C   0  0  0  0  0  0  0  0  0
    5.3640    0.3620    0.0000 N   0  0  0  0  0  0  0  0  0
    4.8120    0.9751    0.0000 C   0  0  0  0  0  0  0  0  0
    5.0669    1.7597    0.0000 C   0  0  0  0  0  0  0  0  0
    5.1091   -0.4227    0.0000 C   0  0  0  0  0  0  0  0  0
    4.3021   -0.5942    0.0000 C   0  0  0  0  0  0  0  0  0
    4.0471   -1.3788    0.0000 C   0  0  0  0  0  0  0  0  0
    4.5992   -1.9919    0.0000 C   0  0  0  0  0  0  0  0  0
    4.3442   -2.7765    0.0000 C   0  0  0  0  0  0  0  0  0
    3.5373   -2.9480    0.0000 C   0  0  0  0  0  0  0  0  0
    2.9852   -2.3350    0.0000 C   0  0  0  0  0  0  0  0  0
    3.2402   -1.5503    0.0000 C   0  0  0  0  0  0  0  0  0
    3.4510   -3.7685    0.0000 C   0  0  0  0  0  0  0  0  0
    2.7366   -4.1810    0.0000 N   0  0  0  0  0  0  0  0  0
    2.7366   -5.0060    0.0000 C   0  0  0  0  0  0  0  0  0
    3.4510   -5.4185    0.0000 O   0  0  0  0  0  0  0  0  0
    2.0221   -5.4185    0.0000 C   0  0  0  0  0  0  0  0  0
    1.3076   -5.8310    0.0000 F   0  0  0  0  0  0  0  0  0
    2.4346   -6.1330    0.0000 F   0  0  0  0  0  0  0  0  0
    1.6096   -4.7041    0.0000 F   0  0  0  0  0  0  0  0  0
    4.2047   -4.1041    0.0000 C   0  0  0  0  0  0  0  0  0
    4.7567   -3.4910    0.0000 C   0  0  0  0  0  0  0  0  0
    6.9134    2.9708    0.0000 C   0  0  0  0  0  0  0  0  0
    6.9134    3.7958    0.0000 C   0  0  0  0  0  0  0  0  0
    7.6279    4.2083    0.0000 C   0  0  0  0  0  0  0  0  0
    8.3424    3.7958    0.0000 C   0  0  0  0  0  0  0  0  0
    8.3424    2.9708    0.0000 C   0  0  0  0  0  0  0  0  0
    7.6279    2.5583    0.0000 C   0  0  0  0  0  0  0  0  0
  1  2  4  0  0  0  0
  1 29  4  0  0  0  0
  2  3  4  0  0  0  0
  3  4  1  0  0  0  0
  3 28  4  0  0  0  0
  4  5  1  0  0  0  0
  4  9  1  0  0  0  0
  5  6  1  0  0  0  0
  6  7  1  0  0  0  0
  7  8  1  0  0  0  0
  7 10  1  0  0  0  0
  8  9  1  0  0  0  0
 10 11  1  0  0  0  0
 11 12  1  0  0  0  0
 12 13  4  0  0  0  0
 12 17  4  0  0  0  0
 13 14  4  0  0  0  0
 14 15  4  0  0  0  0
 14 27  1  0  0  0  0
 15 16  4  0  0  0  0
 15 18  1  0  0  0  0
 16 17  4  0  0  0  0
 18 19  1  0  0  0  0
 18 26  1  0  0  0  0
 19 20  1  0  0  0  0
 20 21  2  0  0  0  0
 20 22  1  0  0  0  0
 22 23  1  0  0  0  0
 22 24  1  0  0  0  0
 22 25  1  0  0  0  0
 26 27  1  0  0  0  0
 28 29  4  0  0  0  0
 28 33  4  0  0  0  0
 29 30  4  0  0  0  0
 30 31  4  0  0  0  0
 31 32  4  0  0  0  0
 32 33  4  0  0  0  0
M  END
>  <Name_Molregno>
423267

>  <5-HT1A>
9

>  <5-HT2A>
9.82

>  <DOPAMINE D2>
8.1

$$$$
423269
  Marvin  02231216192D 0   1.00000     0.00000     0

 30 34  0  0  1  0  0  0  0  0999 V2000
    5.2970    3.6508    0.0000 S   0  0  0  0  0  0  0  0  0
    4.8121    2.9834    0.0000 N   0  0  0  0  0  0  0  0  0
    5.2970    2.3160    0.0000 C   0  0  0  0  0  0  0  0  0
    5.0421    1.5313    0.0000 N   0  0  0  0  0  0  0  0  0
    5.5941    0.9182    0.0000 C   0  0  0  0  0  0  0  0  0
    5.3392    0.1336    0.0000 C   0  0  0  0  0  0  0  0  0
    4.5322   -0.0379    0.0000 N   0  0  0  0  0  0  0  0  0
    3.9802    0.5752    0.0000 C   0  0  0  0  0  0  0  0  0
    4.2351    1.3598    0.0000 C   0  0  0  0  0  0  0  0  0
    4.2773   -0.8225    0.0000 C   0  0  0  0  0  0  0  0  0
    3.4703   -0.9941    0.0000 C   0  0  0  0  0  0  0  0  0
    3.2154   -1.7787    0.0000 C   0  0  0  0  0  0  0  0  0
    3.7674   -2.3918    0.0000 C   0  0  0  0  0  0  0  0  0
    3.5125   -3.1764    0.0000 C   0  0  0  0  0  0  0  0  0
    2.7055   -3.3479    0.0000 C   0  0  0  0  0  0  0  0  0
    2.1535   -2.7348    0.0000 C   0  0  0  0  0  0  0  0  0
    2.4084   -1.9502    0.0000 C   0  0  0  0  0  0  0  0  0
    2.6192   -4.1684    0.0000 C   0  0  0  0  0  0  0  0  0
    1.9048   -4.5809    0.0000 N   0  0  0  0  0  0  0  0  0
    1.9048   -5.4059    0.0000 C   0  0  0  0  0  0  0  0  0
    1.1903   -5.8184    0.0000 O   0  0  0  0  0  0  0  0  0
    2.6192   -5.8184    0.0000 C   0  0  0  0  0  0  0  0  0
    3.3729   -4.5040    0.0000 C   0  0  0  0  0  0  0  0  0
    3.9250   -3.8909    0.0000 C   0  0  0  0  0  0  0  0  0
    6.0817    2.5709    0.0000 C   0  0  0  0  0  0  0  0  0
    6.0817    3.3959    0.0000 C   0  0  0  0  0  0  0  0  0
    6.7961    3.8084    0.0000 C   0  0  0  0  0  0  0  0  0
    7.5106    3.3959    0.0000 C   0  0  0  0  0  0  0  0  0
    7.5106    2.5709    0.0000 C   0  0  0  0  0  0  0  0  0
    6.7961    2.1584    0.0000 C   0  0  0  0  0  0  0  0  0
  1  2  4  0  0  0  0
  1 26  4  0  0  0  0
  2  3  4  0  0  0  0
  3  4  1  0  0  0  0
  3 25  4  0  0  0  0
  4  5  1  0  0  0  0
  4  9  1  0  0  0  0
  5  6  1  0  0  0  0
  6  7  1  0  0  0  0
  7  8  1  0  0  0  0
  7 10  1  0  0  0  0
  8  9  1  0  0  0  0
 10 11  1  0  0  0  0
 11 12  1  0  0  0  0
 12 13  4  0  0  0  0
 12 17  4  0  0  0  0
 13 14  4  0  0  0  0
 14 15  4  0  0  0  0
 14 24  1  0  0  0  0
 15 16  4  0  0  0  0
 15 18  1  0  0  0  0
 16 17  4  0  0  0  0
 18 19  1  0  0  0  0
 18 23  1  0  0  0  0
 19 20  1  0  0  0  0
 20 21  2  0  0  0  0
 20 22  1  0  0  0  0
 23 24  1  0  0  0  0
 25 26  4  0  0  0  0
 25 30  4  0  0  0  0
 26 27  4  0  0  0  0
 27 28  4  0  0  0  0
 28 29  4  0  0  0  0
 29 30  4  0  0  0  0
M  END
>  <Name_Molregno>
423269

>  <5-HT1A>
8.96

>  <5-HT2A>
9.48

>  <DOPAMINE D2>
7.82

$$$$
423270
  Marvin  02231216192D 0   1.00000     0.00000     0

 31 35  0  0  1  0  0  0  0  0999 V2000
    5.6049    3.8319    0.0000 S   0  0  0  0  0  0  0  0  0
    5.1200    3.1645    0.0000 N   0  0  0  0  0  0  0  0  0
    5.6049    2.4971    0.0000 C   0  0  0  0  0  0  0  0  0
    5.3500    1.7124    0.0000 N   0  0  0  0  0  0  0  0  0
    5.9020    1.0993    0.0000 C   0  0  0  0  0  0  0  0  0
    5.6471    0.3147    0.0000 C   0  0  0  0  0  0  0  0  0
    4.8401    0.1432    0.0000 N   0  0  0  0  0  0  0  0  0
    4.2881    0.7563    0.0000 C   0  0  0  0  0  0  0  0  0
    4.5430    1.5409    0.0000 C   0  0  0  0  0  0  0  0  0
    4.5852   -0.6414    0.0000 C   0  0  0  0  0  0  0  0  0
    3.7782   -0.8129    0.0000 C   0  0  0  0  0  0  0  0  0
    3.5232   -1.5976    0.0000 C   0  0  0  0  0  0  0  0  0
    4.0753   -2.2107    0.0000 C   0  0  0  0  0  0  0  0  0
    3.8203   -2.9953    0.0000 C   0  0  0  0  0  0  0  0  0
    3.0134   -3.1668    0.0000 C   0  0  0  0  0  0  0  0  0
    2.4613   -2.5537    0.0000 C   0  0  0  0  0  0  0  0  0
    2.7163   -1.7691    0.0000 C   0  0  0  0  0  0  0  0  0
    2.9271   -3.9873    0.0000 C   0  0  0  0  0  0  0  0  0
    2.2127   -4.3998    0.0000 N   0  0  0  0  0  0  0  0  0
    2.2127   -5.2248    0.0000 C   0  0  0  0  0  0  0  0  0
    2.9271   -5.6373    0.0000 O   0  0  0  0  0  0  0  0  0
    1.4982   -5.6373    0.0000 C   0  0  0  0  0  0  0  0  0
    1.4982   -6.4623    0.0000 C   0  0  0  0  0  0  0  0  0
    3.6808   -4.3229    0.0000 C   0  0  0  0  0  0  0  0  0
    4.2328   -3.7098    0.0000 C   0  0  0  0  0  0  0  0  0
    6.3895    2.7520    0.0000 C   0  0  0  0  0  0  0  0  0
    6.3895    3.5770    0.0000 C   0  0  0  0  0  0  0  0  0
    7.1040    3.9895    0.0000 C   0  0  0  0  0  0  0  0  0
    7.8185    3.5770    0.0000 C   0  0  0  0  0  0  0  0  0
    7.8185    2.7520    0.0000 C   0  0  0  0  0  0  0  0  0
    7.1040    2.3395    0.0000 C   0  0  0  0  0  0  0  0  0
  1  2  4  0  0  0  0
  1 27  4  0  0  0  0
  2  3  4  0  0  0  0
  3  4  1  0  0  0  0
  3 26  4  0  0  0  0
  4  5  1  0  0  0  0
  4  9  1  0  0  0  0
  5  6  1  0  0  0  0
  6  7  1  0  0  0  0
  7  8  1  0  0  0  0
  7 10  1  0  0  0  0
  8  9  1  0  0  0  0
 10 11  1  0  0  0  0
 11 12  1  0  0  0  0
 12 13  4  0  0  0  0
 12 17  4  0  0  0  0
 13 14  4  0  0  0  0
 14 15  4  0  0  0  0
 14 25  1  0  0  0  0
 15 16  4  0  0  0  0
 15 18  1  0  0  0  0
 16 17  4  0  0  0  0
 18 19  1  0  0  0  0
 18 24  1  0  0  0  0
 19 20  1  0  0  0  0
 20 21  2  0  0  0  0
 20 22  1  0  0  0  0
 22 23  1  0  0  0  0
 24 25  1  0  0  0  0
 26 27  4  0  0  0  0
 26 31  4  0  0  0  0
 27 28  4  0  0  0  0
 28 29  4  0  0  0  0
 29 30  4  0  0  0  0
 30 31  4  0  0  0  0
M  END
>  <Name_Molregno>
423270

>  <5-HT1A>
8.7

>  <5-HT2A>
9.6

$$$$
423272
  Marvin  02231216192D 0   1.00000     0.00000     0

 32 36  0  0  1  0  0  0  0  0999 V2000
    5.9856    4.7696    0.0000 S   0  0  0  0  0  0  0  0  0
    5.5007    4.1022    0.0000 N   0  0  0  0  0  0  0  0  0
    5.9856    3.4347    0.0000 C   0  0  0  0  0  0  0  0  0
    5.7306    2.6501    0.0000 N   0  0  0  0  0  0  0  0  0
    6.2827    2.0370    0.0000 C   0  0  0  0  0  0  0  0  0
    6.0277    1.2524    0.0000 C   0  0  0  0  0  0  0  0  0
    5.2208    1.0808    0.0000 N   0  0  0  0  0  0  0  0  0
    4.6687    1.6939    0.0000 C   0  0  0  0  0  0  0  0  0
    4.9237    2.4786    0.0000 C   0  0  0  0  0  0  0  0  0
    4.9658    0.2962    0.0000 C   0  0  0  0  0  0  0  0  0
    4.1589    0.1247    0.0000 C   0  0  0  0  0  0  0  0  0
    3.9039   -0.6599    0.0000 C   0  0  0  0  0  0  0  0  0
    4.4560   -1.2730    0.0000 C   0  0  0  0  0  0  0  0  0
    4.2010   -2.0576    0.0000 C   0  0  0  0  0  0  0  0  0
    3.3940   -2.2292    0.0000 C   0  0  0  0  0  0  0  0  0
    2.8420   -1.6161    0.0000 C   0  0  0  0  0  0  0  0  0
    3.0969   -0.8314    0.0000 C   0  0  0  0  0  0  0  0  0
    3.3078   -3.0496    0.0000 C   0  0  0  0  0  0  0  0  0
    2.5933   -3.4621    0.0000 N   0  0  0  0  0  0  0  0  0
    2.5933   -4.2871    0.0000 C   0  0  0  0  0  0  0  0  0
    3.3078   -4.6996    0.0000 O   0  0  0  0  0  0  0  0  0
    1.8789   -4.6996    0.0000 C   0  0  0  0  0  0  0  0  0
    1.8789   -5.5246    0.0000 C   0  0  0  0  0  0  0  0  0
    1.1644   -5.9371    0.0000 C   0  0  0  0  0  0  0  0  0
    4.0615   -3.3852    0.0000 C   0  0  0  0  0  0  0  0  0
    4.6135   -2.7721    0.0000 C   0  0  0  0  0  0  0  0  0
    6.7702    3.6897    0.0000 C   0  0  0  0  0  0  0  0  0
    6.7702    4.5147    0.0000 C   0  0  0  0  0  0  0  0  0
    7.4847    4.9272    0.0000 C   0  0  0  0  0  0  0  0  0
    8.1992    4.5147    0.0000 C   0  0  0  0  0  0  0  0  0
    8.1992    3.6897    0.0000 C   0  0  0  0  0  0  0  0  0
    7.4847    3.2772    0.0000 C   0  0  0  0  0  0  0  0  0
  1  2  4  0  0  0  0
  1 28  4  0  0  0  0
  2  3  4  0  0  0  0
  3  4  1  0  0  0  0
  3 27  4  0  0  0  0
  4  5  1  0  0  0  0
  4  9  1  0  0  0  0
  5  6  1  0  0  0  0
  6  7  1  0  0  0  0
  7  8  1  0  0  0  0
  7 10  1  0  0  0  0
  8  9  1  0  0  0  0
 10 11  1  0  0  0  0
 11 12  1  0  0  0  0
 12 13  4  0  0  0  0
 12 17  4  0  0  0  0
 13 14  4  0  0  0  0
 14 15  4  0  0  0  0
 14 26  1  0  0  0  0
 15 16  4  0  0  0  0
 15 18  1  0  0  0  0
 16 17  4  0  0  0  0
 18 19  1  0  0  0  0
 18 25  1  0  0  0  0
 19 20  1  0  0  0  0
 20 21  2  0  0  0  0
 20 22  1  0  0  0  0
 22 23  1  0  0  0  0
 23 24  1  0  0  0  0
 25 26  1  0  0  0  0
 27 28  4  0  0  0  0
 27 32  4  0  0  0  0
 28 29  4  0  0  0  0
 29 30  4  0  0  0  0
 30 31  4  0  0  0  0
 31 32  4  0  0  0  0
M  END
>  <Name_Molregno>
423272

>  <5-HT1A>
8.7

>  <5-HT2A>
9.3

$$$$
423274
  Marvin  02231216192D 0   1.00000     0.00000     0

 32 37  0  0  1  0  0  0  0  0999 V2000
    5.9088    3.9085    0.0000 S   0  0  0  0  0  0  0  0  0
    5.4238    3.2411    0.0000 N   0  0  0  0  0  0  0  0  0
    5.9088    2.5736    0.0000 C   0  0  0  0  0  0  0  0  0
    5.6538    1.7890    0.0000 N   0  0  0  0  0  0  0  0  0
    6.2058    1.1759    0.0000 C   0  0  0  0  0  0  0  0  0
    5.9509    0.3913    0.0000 C   0  0  0  0  0  0  0  0  0
    5.1439    0.2198    0.0000 N   0  0  0  0  0  0  0  0  0
    4.5919    0.8329    0.0000 C   0  0  0  0  0  0  0  0  0
    4.8468    1.6175    0.0000 C   0  0  0  0  0  0  0  0  0
    4.8890   -0.5648    0.0000 C   0  0  0  0  0  0  0  0  0
    4.0820   -0.7364    0.0000 C   0  0  0  0  0  0  0  0  0
    3.8271   -1.5210    0.0000 C   0  0  0  0  0  0  0  0  0
    4.3791   -2.1341    0.0000 C   0  0  0  0  0  0  0  0  0
    4.1242   -2.9187    0.0000 C   0  0  0  0  0  0  0  0  0
    3.3172   -3.0902    0.0000 C   0  0  0  0  0  0  0  0  0
    2.7652   -2.4771    0.0000 C   0  0  0  0  0  0  0  0  0
    3.0201   -1.6925    0.0000 C   0  0  0  0  0  0  0  0  0
    3.2310   -3.9107    0.0000 C   0  0  0  0  0  0  0  0  0
    2.5165   -4.3232    0.0000 N   0  0  0  0  0  0  0  0  0
    2.5165   -5.1482    0.0000 C   0  0  0  0  0  0  0  0  0
    3.2310   -5.5607    0.0000 O   0  0  0  0  0  0  0  0  0
    1.8020   -5.5607    0.0000 C   0  0  0  0  0  0  0  0  0
    1.3895   -6.2752    0.0000 C   0  0  0  0  0  0  0  0  0
    0.9770   -5.5607    0.0000 C   0  0  0  0  0  0  0  0  0
    3.9846   -4.2463    0.0000 C   0  0  0  0  0  0  0  0  0
    4.5367   -3.6332    0.0000 C   0  0  0  0  0  0  0  0  0
    6.6934    2.8286    0.0000 C   0  0  0  0  0  0  0  0  0
    6.6934    3.6536    0.0000 C   0  0  0  0  0  0  0  0  0
    7.4078    4.0661    0.0000 C   0  0  0  0  0  0  0  0  0
    8.1223    3.6536    0.0000 C   0  0  0  0  0  0  0  0  0
    8.1223    2.8286    0.0000 C   0  0  0  0  0  0  0  0  0
    7.4078    2.4161    0.0000 C   0  0  0  0  0  0  0  0  0
  1  2  4  0  0  0  0
  1 28  4  0  0  0  0
  2  3  4  0  0  0  0
  3  4  1  0  0  0  0
  3 27  4  0  0  0  0
  4  5  1  0  0  0  0
  4  9  1  0  0  0  0
  5  6  1  0  0  0  0
  6  7  1  0  0  0  0
  7  8  1  0  0  0  0
  7 10  1  0  0  0  0
  8  9  1  0  0  0  0
 10 11  1  0  0  0  0
 11 12  1  0  0  0  0
 12 13  4  0  0  0  0
 12 17  4  0  0  0  0
 13 14  4  0  0  0  0
 14 15  4  0  0  0  0
 14 26  1  0  0  0  0
 15 16  4  0  0  0  0
 15 18  1  0  0  0  0
 16 17  4  0  0  0  0
 18 19  1  0  0  0  0
 18 25  1  0  0  0  0
 19 20  1  0  0  0  0
 20 21  2  0  0  0  0
 20 22  1  0  0  0  0
 22 23  1  0  0  0  0
 22 24  1  0  0  0  0
 23 24  1  0  0  0  0
 25 26  1  0  0  0  0
 27 28  4  0  0  0  0
 27 32  4  0  0  0  0
 28 29  4  0  0  0  0
 29 30  4  0  0  0  0
 30 31  4  0  0  0  0
 31 32  4  0  0  0  0
M  END
>  <Name_Molregno>
423274

>  <5-HT1A>
8.7

>  <5-HT2A>
9.35

$$$$
423275
  Marvin  02231216192D 0   1.00000     0.00000     0

 32 36  0  0  1  0  0  0  0  0999 V2000
    5.8866    3.9542    0.0000 S   0  0  0  0  0  0  0  0  0
    5.4017    3.2868    0.0000 N   0  0  0  0  0  0  0  0  0
    5.8866    2.6194    0.0000 C   0  0  0  0  0  0  0  0  0
    5.6317    1.8347    0.0000 N   0  0  0  0  0  0  0  0  0
    6.1837    1.2216    0.0000 C   0  0  0  0  0  0  0  0  0
    5.9288    0.4370    0.0000 C   0  0  0  0  0  0  0  0  0
    5.1218    0.2655    0.0000 N   0  0  0  0  0  0  0  0  0
    4.5698    0.8786    0.0000 C   0  0  0  0  0  0  0  0  0
    4.8247    1.6632    0.0000 C   0  0  0  0  0  0  0  0  0
    4.8669   -0.5191    0.0000 C   0  0  0  0  0  0  0  0  0
    4.0599   -0.6907    0.0000 C   0  0  0  0  0  0  0  0  0
    3.8049   -1.4753    0.0000 C   0  0  0  0  0  0  0  0  0
    4.3570   -2.0884    0.0000 C   0  0  0  0  0  0  0  0  0
    4.1020   -2.8730    0.0000 C   0  0  0  0  0  0  0  0  0
    3.2951   -3.0445    0.0000 C   0  0  0  0  0  0  0  0  0
    2.7430   -2.4314    0.0000 C   0  0  0  0  0  0  0  0  0
    2.9980   -1.6468    0.0000 C   0  0  0  0  0  0  0  0  0
    3.2088   -3.8650    0.0000 C   0  0  0  0  0  0  0  0  0
    2.4944   -4.2775    0.0000 N   0  0  0  0  0  0  0  0  0
    2.4944   -5.1025    0.0000 C   0  0  0  0  0  0  0  0  0
    3.2088   -5.5150    0.0000 O   0  0  0  0  0  0  0  0  0
    1.7799   -5.5150    0.0000 C   0  0  0  0  0  0  0  0  0
    1.7799   -6.3400    0.0000 C   0  0  0  0  0  0  0  0  0
    1.0654   -5.1025    0.0000 C   0  0  0  0  0  0  0  0  0
    3.9625   -4.2006    0.0000 C   0  0  0  0  0  0  0  0  0
    4.5145   -3.5875    0.0000 C   0  0  0  0  0  0  0  0  0
    6.6712    2.8743    0.0000 C   0  0  0  0  0  0  0  0  0
    6.6712    3.6993    0.0000 C   0  0  0  0  0  0  0  0  0
    7.3857    4.1118    0.0000 C   0  0  0  0  0  0  0  0  0
    8.1002    3.6993    0.0000 C   0  0  0  0  0  0  0  0  0
    8.1002    2.8743    0.0000 C   0  0  0  0  0  0  0  0  0
    7.3857    2.4618    0.0000 C   0  0  0  0  0  0  0  0  0
  1  2  4  0  0  0  0
  1 28  4  0  0  0  0
  2  3  4  0  0  0  0
  3  4  1  0  0  0  0
  3 27  4  0  0  0  0
  4  5  1  0  0  0  0
  4  9  1  0  0  0  0
  5  6  1  0  0  0  0
  6  7  1  0  0  0  0
  7  8  1  0  0  0  0
  7 10  1  0  0  0  0
  8  9  1  0  0  0  0
 10 11  1  0  0  0  0
 11 12  1  0  0  0  0
 12 13  4  0  0  0  0
 12 17  4  0  0  0  0
 13 14  4  0  0  0  0
 14 15  4  0  0  0  0
 14 26  1  0  0  0  0
 15 16  4  0  0  0  0
 15 18  1  0  0  0  0
 16 17  4  0  0  0  0
 18 19  1  0  0  0  0
 18 25  1  0  0  0  0
 19 20  1  0  0  0  0
 20 21  2  0  0  0  0
 20 22  1  0  0  0  0
 22 23  1  0  0  0  0
 22 24  1  0  0  0  0
 25 26  1  0  0  0  0
 27 28  4  0  0  0  0
 27 32  4  0  0  0  0
 28 29  4  0  0  0  0
 29 30  4  0  0  0  0
 30 31  4  0  0  0  0
 31 32  4  0  0  0  0
M  END
>  <Name_Molregno>
423275

>  <5-HT1A>
9

>  <5-HT2A>
9.19

$$$$
423277
  Marvin  02231216192D 0   1.00000     0.00000     0

 36 41  0  0  1  0  0  0  0  0999 V2000
    7.1026    4.5935    0.0000 S   0  0  0  0  0  0  0  0  0
    6.6177    3.9261    0.0000 N   0  0  0  0  0  0  0  0  0
    7.1026    3.2586    0.0000 C   0  0  0  0  0  0  0  0  0
    6.8477    2.4740    0.0000 N   0  0  0  0  0  0  0  0  0
    7.3997    1.8609    0.0000 C   0  0  0  0  0  0  0  0  0
    7.1448    1.0763    0.0000 C   0  0  0  0  0  0  0  0  0
    6.3378    0.9048    0.0000 N   0  0  0  0  0  0  0  0  0
    5.7858    1.5179    0.0000 C   0  0  0  0  0  0  0  0  0
    6.0407    2.3025    0.0000 C   0  0  0  0  0  0  0  0  0
    6.0829    0.1202    0.0000 C   0  0  0  0  0  0  0  0  0
    5.2759   -0.0514    0.0000 C   0  0  0  0  0  0  0  0  0
    5.0210   -0.8360    0.0000 C   0  0  0  0  0  0  0  0  0
    5.5730   -1.4491    0.0000 C   0  0  0  0  0  0  0  0  0
    5.3181   -2.2337    0.0000 C   0  0  0  0  0  0  0  0  0
    4.5111   -2.4052    0.0000 C   0  0  0  0  0  0  0  0  0
    3.9591   -1.7921    0.0000 C   0  0  0  0  0  0  0  0  0
    4.2140   -1.0075    0.0000 C   0  0  0  0  0  0  0  0  0
    4.4249   -3.2257    0.0000 C   0  0  0  0  0  0  0  0  0
    3.7104   -3.6382    0.0000 N   0  0  0  0  0  0  0  0  0
    3.7104   -4.4632    0.0000 C   0  0  0  0  0  0  0  0  0
    4.4249   -4.8757    0.0000 O   0  0  0  0  0  0  0  0  0
    2.9959   -4.8757    0.0000 C   0  0  0  0  0  0  0  0  0
    2.9959   -5.7007    0.0000 C   0  0  0  0  0  0  0  0  0
    2.2815   -6.1132    0.0000 C   0  0  0  0  0  0  0  0  0
    1.5670   -5.7007    0.0000 C   0  0  0  0  0  0  0  0  0
    0.8525   -6.1132    0.0000 F   0  0  0  0  0  0  0  0  0
    1.5670   -4.8757    0.0000 C   0  0  0  0  0  0  0  0  0
    2.2815   -4.4632    0.0000 C   0  0  0  0  0  0  0  0  0
    5.1785   -3.5613    0.0000 C   0  0  0  0  0  0  0  0  0
    5.7306   -2.9482    0.0000 C   0  0  0  0  0  0  0  0  0
    7.8873    3.5136    0.0000 C   0  0  0  0  0  0  0  0  0
    7.8873    4.3386    0.0000 C   0  0  0  0  0  0  0  0  0
    8.6017    4.7511    0.0000 C   0  0  0  0  0  0  0  0  0
    9.3162    4.3386    0.0000 C   0  0  0  0  0  0  0  0  0
    9.3162    3.5136    0.0000 C   0  0  0  0  0  0  0  0  0
    8.6017    3.1011    0.0000 C   0  0  0  0  0  0  0  0  0
  1  2  4  0  0  0  0
  1 32  4  0  0  0  0
  2  3  4  0  0  0  0
  3  4  1  0  0  0  0
  3 31  4  0  0  0  0
  4  5  1  0  0  0  0
  4  9  1  0  0  0  0
  5  6  1  0  0  0  0
  6  7  1  0  0  0  0
  7  8  1  0  0  0  0
  7 10  1  0  0  0  0
  8  9  1  0  0  0  0
 10 11  1  0  0  0  0
 11 12  1  0  0  0  0
 12 13  4  0  0  0  0
 12 17  4  0  0  0  0
 13 14  4  0  0  0  0
 14 15  4  0  0  0  0
 14 30  1  0  0  0  0
 15 16  4  0  0  0  0
 15 18  1  0  0  0  0
 16 17  4  0  0  0  0
 18 19  1  0  0  0  0
 18 29  1  0  0  0  0
 19 20  1  0  0  0  0
 20 21  2  0  0  0  0
 20 22  1  0  0  0  0
 22 23  4  0  0  0  0
 22 28  4  0  0  0  0
 23 24  4  0  0  0  0
 24 25  4  0  0  0  0
 25 26  1  0  0  0  0
 25 27  4  0  0  0  0
 27 28  4  0  0  0  0
 29 30  1  0  0  0  0
 31 32  4  0  0  0  0
 31 36  4  0  0  0  0
 32 33  4  0  0  0  0
 33 34  4  0  0  0  0
 34 35  4  0  0  0  0
 35 36  4  0  0  0  0
M  END
>  <Name_Molregno>
423277

>  <5-HT1A>
8.11

>  <5-HT2A>
8.78

>  <DOPAMINE D2>
8

$$$$
423279
  Marvin  02231216192D 0   1.00000     0.00000     0

 35 40  0  0  1  0  0  0  0  0999 V2000
    6.7613    4.2686    0.0000 S   0  0  0  0  0  0  0  0  0
    6.2764    3.6011    0.0000 N   0  0  0  0  0  0  0  0  0
    6.7613    2.9337    0.0000 C   0  0  0  0  0  0  0  0  0
    6.5063    2.1491    0.0000 N   0  0  0  0  0  0  0  0  0
    7.0584    1.5360    0.0000 C   0  0  0  0  0  0  0  0  0
    6.8034    0.7513    0.0000 C   0  0  0  0  0  0  0  0  0
    5.9965    0.5798    0.0000 N   0  0  0  0  0  0  0  0  0
    5.4444    1.1929    0.0000 C   0  0  0  0  0  0  0  0  0
    5.6994    1.9775    0.0000 C   0  0  0  0  0  0  0  0  0
    5.7415   -0.2048    0.0000 C   0  0  0  0  0  0  0  0  0
    4.9346   -0.3763    0.0000 C   0  0  0  0  0  0  0  0  0
    4.6796   -1.1610    0.0000 C   0  0  0  0  0  0  0  0  0
    5.2316   -1.7740    0.0000 C   0  0  0  0  0  0  0  0  0
    4.9767   -2.5587    0.0000 C   0  0  0  0  0  0  0  0  0
    4.1697   -2.7302    0.0000 C   0  0  0  0  0  0  0  0  0
    3.6177   -2.1171    0.0000 C   0  0  0  0  0  0  0  0  0
    3.8726   -1.3325    0.0000 C   0  0  0  0  0  0  0  0  0
    4.0835   -3.5507    0.0000 C   0  0  0  0  0  0  0  0  0
    3.3690   -3.9632    0.0000 N   0  0  0  0  0  0  0  0  0
    3.3690   -4.7882    0.0000 C   0  0  0  0  0  0  0  0  0
    4.0835   -5.2007    0.0000 O   0  0  0  0  0  0  0  0  0
    2.6546   -5.2007    0.0000 C   0  0  0  0  0  0  0  0  0
    2.6546   -6.0257    0.0000 C   0  0  0  0  0  0  0  0  0
    1.9401   -6.4382    0.0000 C   0  0  0  0  0  0  0  0  0
    1.2256   -6.0257    0.0000 C   0  0  0  0  0  0  0  0  0
    1.2256   -5.2007    0.0000 N   0  0  0  0  0  0  0  0  0
    1.9401   -4.7882    0.0000 C   0  0  0  0  0  0  0  0  0
    4.8372   -3.8862    0.0000 C   0  0  0  0  0  0  0  0  0
    5.3892   -3.2731    0.0000 C   0  0  0  0  0  0  0  0  0
    7.5459    3.1886    0.0000 C   0  0  0  0  0  0  0  0  0
    7.5459    4.0136    0.0000 C   0  0  0  0  0  0  0  0  0
    8.2604    4.4261    0.0000 C   0  0  0  0  0  0  0  0  0
    8.9748    4.0136    0.0000 C   0  0  0  0  0  0  0  0  0
    8.9748    3.1886    0.0000 C   0  0  0  0  0  0  0  0  0
    8.2604    2.7761    0.0000 C   0  0  0  0  0  0  0  0  0
  1  2  4  0  0  0  0
  1 31  4  0  0  0  0
  2  3  4  0  0  0  0
  3  4  1  0  0  0  0
  3 30  4  0  0  0  0
  4  5  1  0  0  0  0
  4  9  1  0  0  0  0
  5  6  1  0  0  0  0
  6  7  1  0  0  0  0
  7  8  1  0  0  0  0
  7 10  1  0  0  0  0
  8  9  1  0  0  0  0
 10 11  1  0  0  0  0
 11 12  1  0  0  0  0
 12 13  4  0  0  0  0
 12 17  4  0  0  0  0
 13 14  4  0  0  0  0
 14 15  4  0  0  0  0
 14 29  1  0  0  0  0
 15 16  4  0  0  0  0
 15 18  1  0  0  0  0
 16 17  4  0  0  0  0
 18 19  1  0  0  0  0
 18 28  1  0  0  0  0
 19 20  1  0  0  0  0
 20 21  2  0  0  0  0
 20 22  1  0  0  0  0
 22 23  4  0  0  0  0
 22 27  4  0  0  0  0
 23 24  4  0  0  0  0
 24 25  4  0  0  0  0
 25 26  4  0  0  0  0
 26 27  4  0  0  0  0
 28 29  1  0  0  0  0
 30 31  4  0  0  0  0
 30 35  4  0  0  0  0
 31 32  4  0  0  0  0
 32 33  4  0  0  0  0
 33 34  4  0  0  0  0
 34 35  4  0  0  0  0
M  END
>  <Name_Molregno>
423279

>  <5-HT1A>
8.11

>  <5-HT2A>
9.17

>  <DOPAMINE D2>
8.3

$$$$
424846
  Marvin  02231216192D 0   1.00000     0.00000     0

 24 27  0  0  1  0  0  0  0  0999 V2000
   -0.5468   -0.8405    0.0000 O   0  0  0  0  0  0  0  0  0
    0.1676   -1.2530    0.0000 C   0  0  0  0  0  0  0  0  0
    0.1676   -2.0780    0.0000 O   0  0  0  0  0  0  0  0  0
    0.8821   -0.8405    0.0000 C   0  0  0  0  0  0  0  0  0
   -0.5468   -0.0155    0.0000 C   0  0  0  0  0  0  0  0  0
   -1.2613    0.3970    0.0000 C   0  0  0  0  0  0  0  0  0
   -1.2613    1.2220    0.0000 C   0  0  0  0  0  0  0  0  0
   -1.9758    1.6345    0.0000 C   0  0  0  0  0  0  0  0  0
   -2.6902    1.2220    0.0000 C   0  0  0  0  0  0  0  0  0
   -3.4047    1.6345    0.0000 N   0  0  0  0  0  0  0  0  0
   -4.1192    1.2220    0.0000 C   0  0  0  0  0  0  0  0  0
   -4.1192    0.3970    0.0000 C   0  0  0  0  0  0  0  0  0
   -3.4047   -0.0155    0.0000 C   0  0  0  0  0  0  0  0  0
   -2.6902    0.3970    0.0000 C   0  0  0  0  0  0  0  0  0
   -1.9758   -0.0155    0.0000 C   0  0  0  0  0  0  0  0  0
   -1.9758   -0.8405    0.0000 C   0  0  0  0  0  0  0  0  0
   -2.6902   -1.2530    0.0000 C   0  0  0  0  0  0  0  0  0
   -3.4047   -0.8405    0.0000 C   0  0  0  0  0  0  0  0  0
   -3.4047    2.4595    0.0000 C   0  0  0  0  0  0  0  0  0
   -2.6902    2.8720    0.0000 C   0  0  0  0  0  0  0  0  0
   -2.6902    3.6970    0.0000 C   0  0  0  0  0  0  0  0  0
   -0.5468    1.6345    0.0000 C   0  0  0  0  0  0  0  0  0
    0.1676    1.2220    0.0000 C   0  0  0  0  0  0  0  0  0
    0.1676    0.3970    0.0000 C   0  0  0  0  0  0  0  0  0
  1  2  1  0  0  0  0
  1  5  1  0  0  0  0
  2  3  2  0  0  0  0
  2  4  1  0  0  0  0
  5  6  4  0  0  0  0
  5 24  4  0  0  0  0
  6  7  4  0  0  0  0
  6 15  1  0  0  0  0
  7  8  1  0  0  0  0
  7 22  4  0  0  0  0
  8  9  1  0  0  0  0
  9 10  1  0  0  0  0
  9 14  1  0  0  0  0
 10 11  1  0  0  0  0
 10 19  1  0  0  0  0
 11 12  1  0  0  0  0
 12 13  1  0  0  0  0
 13 14  4  0  0  0  0
 13 18  4  0  0  0  0
 14 15  4  0  0  0  0
 15 16  4  0  0  0  0
 16 17  4  0  0  0  0
 17 18  4  0  0  0  0
 19 20  1  0  0  0  0
 20 21  1  0  0  0  0
 22 23  4  0  0  0  0
 23 24  4  0  0  0  0
M  END
>  <Name_Molregno>
424846

>  <5-HT2A>
7.14

$$$$
424847
  Marvin  02231216192D 0   1.00000     0.00000     0

 27 30  0  0  1  0  0  0  0  0999 V2000
   -0.0168    0.7858    0.0000 O   0  0  0  0  0  0  0  0  0
    0.6977    1.1983    0.0000 C   0  0  0  0  0  0  0  0  0
    0.6977    2.0233    0.0000 O   0  0  0  0  0  0  0  0  0
    1.4122    0.7858    0.0000 C   0  0  0  0  0  0  0  0  0
    2.1267    1.1983    0.0000 C   0  0  0  0  0  0  0  0  0
    2.8411    0.7858    0.0000 C   0  0  0  0  0  0  0  0  0
    3.5556    1.1983    0.0000 C   0  0  0  0  0  0  0  0  0
   -0.7312    1.1983    0.0000 C   0  0  0  0  0  0  0  0  0
   -1.4457    0.7858    0.0000 C   0  0  0  0  0  0  0  0  0
   -2.1602    1.1983    0.0000 C   0  0  0  0  0  0  0  0  0
   -2.8746    0.7858    0.0000 C   0  0  0  0  0  0  0  0  0
   -2.8746   -0.0392    0.0000 C   0  0  0  0  0  0  0  0  0
   -3.5891   -0.4517    0.0000 N   0  0  0  0  0  0  0  0  0
   -3.5891   -1.2767    0.0000 C   0  0  0  0  0  0  0  0  0
   -2.8746   -1.6892    0.0000 C   0  0  0  0  0  0  0  0  0
   -2.1602   -1.2767    0.0000 C   0  0  0  0  0  0  0  0  0
   -2.1602   -0.4517    0.0000 C   0  0  0  0  0  0  0  0  0
   -1.4457   -0.0392    0.0000 C   0  0  0  0  0  0  0  0  0
   -0.7312   -0.4517    0.0000 C   0  0  0  0  0  0  0  0  0
   -0.7312   -1.2767    0.0000 C   0  0  0  0  0  0  0  0  0
   -1.4457   -1.6892    0.0000 C   0  0  0  0  0  0  0  0  0
   -4.3036   -0.0392    0.0000 C   0  0  0  0  0  0  0  0  0
   -4.3036    0.7858    0.0000 C   0  0  0  0  0  0  0  0  0
   -5.0181    1.1983    0.0000 C   0  0  0  0  0  0  0  0  0
   -2.1602    2.0233    0.0000 C   0  0  0  0  0  0  0  0  0
   -1.4457    2.4358    0.0000 C   0  0  0  0  0  0  0  0  0
   -0.7312    2.0233    0.0000 C   0  0  0  0  0  0  0  0  0
  1  2  1  0  0  0  0
  1  8  1  0  0  0  0
  2  3  2  0  0  0  0
  2  4  1  0  0  0  0
  4  5  1  0  0  0  0
  5  6  1  0  0  0  0
  6  7  1  0  0  0  0
  8  9  4  0  0  0  0
  8 27  4  0  0  0  0
  9 10  4  0  0  0  0
  9 18  1  0  0  0  0
 10 11  1  0  0  0  0
 10 25  4  0  0  0  0
 11 12  1  0  0  0  0
 12 13  1  0  0  0  0
 12 17  1  0  0  0  0
 13 14  1  0  0  0  0
 13 22  1  0  0  0  0
 14 15  1  0  0  0  0
 15 16  1  0  0  0  0
 16 17  4  0  0  0  0
 16 21  4  0  0  0  0
 17 18  4  0  0  0  0
 18 19  4  0  0  0  0
 19 20  4  0  0  0  0
 20 21  4  0  0  0  0
 22 23  1  0  0  0  0
 23 24  1  0  0  0  0
 25 26  4  0  0  0  0
 26 27  4  0  0  0  0
M  END
>  <Name_Molregno>
424847

>  <5-HT2A>
7.04

>  <DOPAMINE D1>
7.64

>  <DOPAMINE D2>
5

$$$$
425187
  Marvin  02231216192D 0   1.00000     0.00000     0

 19 21  0  0  0  0  0  0  0  0999 V2000
    1.2922   -1.0189    0.0000 O   0  0  0  0  0  0  0  0  0
    0.8797   -1.7334    0.0000 C   0  0  0  0  0  0  0  0  0
    1.2153   -2.4870    0.0000 N   0  0  0  0  0  0  0  0  0
    2.0222   -2.6586    0.0000 C   0  0  0  0  0  0  0  0  0
    0.6022   -3.0391    0.0000 C   0  0  0  0  0  0  0  0  0
    0.6884   -3.8596    0.0000 N   0  0  0  0  0  0  0  0  0
   -0.1123   -2.6266    0.0000 N   0  0  0  0  0  0  0  0  0
   -0.8660   -2.9621    0.0000 C   0  0  0  0  0  0  0  0  0
    0.0592   -1.8196    0.0000 C   0  0  0  0  0  0  0  0  0
   -0.4928   -1.2065    0.0000 C   0  0  0  0  0  0  0  0  0
   -0.2379   -0.4219    0.0000 C   0  0  0  0  0  0  0  0  0
    0.5468   -0.1670    0.0000 C   0  0  0  0  0  0  0  0  0
    0.5468    0.6580    0.0000 C   0  0  0  0  0  0  0  0  0
   -0.2379    0.9130    0.0000 N   0  0  0  0  0  0  0  0  0
   -0.7228    0.2455    0.0000 C   0  0  0  0  0  0  0  0  0
    1.2612    1.0705    0.0000 C   0  0  0  0  0  0  0  0  0
    1.9757    0.6580    0.0000 C   0  0  0  0  0  0  0  0  0
    1.9757   -0.1670    0.0000 C   0  0  0  0  0  0  0  0  0
    1.2612   -0.5795    0.0000 C   0  0  0  0  0  0  0  0  0
  1  2  2  0  0  0  0
  2  3  1  0  0  0  0
  2  9  1  0  0  0  0
  3  4  1  0  0  0  0
  3  5  1  0  0  0  0
  5  6  2  0  0  0  0
  5  7  1  0  0  0  0
  7  8  1  0  0  0  0
  7  9  1  0  0  0  0
  9 10  2  0  0  0  0
 10 11  1  0  0  0  0
 11 12  4  0  0  0  0
 11 15  4  0  0  0  0
 12 13  4  0  0  0  0
 12 19  4  0  0  0  0
 13 14  4  0  0  0  0
 13 16  4  0  0  0  0
 14 15  4  0  0  0  0
 16 17  4  0  0  0  0
 17 18  4  0  0  0  0
 18 19  4  0  0  0  0
M  STY  1   1 DAT
M  SAL   1  1  14
M  SDT   1 MRV_IMPLICIT_H                                        
M  SDD   1     0.0000    0.0000    DR    ALL  0       0  
M  SED   1 IMPL_H1
M  END
>  <Name_Molregno>
425187

>  <5-HT2A>
6.22

>  <5-HT2C>
4.84

$$$$
425206
  Marvin  02231216192D 0   1.00000     0.00000     0

 26 28  0  0  1  0  0  0  0  0999 V2000
    1.1152    2.9536    0.0000 Br  0  0  0  0  0  0  0  0  0
    1.6672    2.3405    0.0000 C   0  0  0  0  0  0  0  0  0
    2.4742    2.5120    0.0000 C   0  0  0  0  0  0  0  0  0
    3.0262    1.8989    0.0000 C   0  0  0  0  0  0  0  0  0
    3.8512    1.8989    0.0000 N   0  0  0  0  0  0  0  0  0
    4.1061    1.1143    0.0000 C   0  0  0  0  0  0  0  0  0
    3.4387    0.6294    0.0000 C   0  0  0  0  0  0  0  0  0
    2.7713    1.1143    0.0000 C   0  0  0  0  0  0  0  0  0
    1.9643    0.9428    0.0000 C   0  0  0  0  0  0  0  0  0
    1.4123    1.5559    0.0000 C   0  0  0  0  0  0  0  0  0
    3.4387   -0.1956    0.0000 C   0  0  0  0  0  0  0  0  0
    4.1532   -0.6081    0.0000 C   0  0  0  0  0  0  0  0  0
    4.8676   -0.1956    0.0000 N   0  0  0  0  0  0  0  0  0
    5.5821   -0.6081    0.0000 C   0  0  0  0  0  0  0  0  0
    6.2966   -0.1956    0.0000 O   0  0  0  0  0  0  0  0  0
    5.5821   -1.4331    0.0000 C   0  0  0  0  0  0  0  0  0
    4.8676   -1.8456    0.0000 N   0  0  0  0  0  0  0  0  0
    4.1532   -1.4331    0.0000 C   0  0  0  0  0  0  0  0  0
    3.4387   -1.8456    0.0000 O   0  0  0  0  0  0  0  0  0
    6.2966   -1.8456    0.0000 C   0  0  0  0  0  0  0  0  0
    7.0111   -1.4331    0.0000 C   0  0  0  0  0  0  0  0  0
    7.7255   -1.8456    0.0000 C   0  0  0  0  0  0  0  0  0
    8.4400   -1.4331    0.0000 N   0  0  0  0  0  0  0  0  0
    9.1545   -1.8456    0.0000 C   0  0  0  0  0  0  0  0  0
    9.8689   -1.4331    0.0000 N   0  0  0  0  0  0  0  0  0
    9.1545   -2.6706    0.0000 N   0  0  0  0  0  0  0  0  0
  1  2  1  0  0  0  0
  2  3  4  0  0  0  0
  2 10  4  0  0  0  0
  3  4  4  0  0  0  0
  4  5  4  0  0  0  0
  4  8  4  0  0  0  0
  5  6  4  0  0  0  0
  6  7  4  0  0  0  0
  7  8  4  0  0  0  0
  7 11  1  0  0  0  0
  8  9  4  0  0  0  0
  9 10  4  0  0  0  0
 11 12  2  0  0  0  0
 12 13  1  0  0  0  0
 12 18  1  0  0  0  0
 13 14  1  0  0  0  0
 14 15  2  0  0  0  0
 14 16  1  0  0  0  0
 16 17  1  0  0  0  0
 16 20  1  0  0  0  0
 17 18  1  0  0  0  0
 18 19  2  0  0  0  0
 20 21  1  0  0  0  0
 21 22  1  0  0  0  0
 22 23  1  0  0  0  0
 23 24  1  0  0  0  0
 24 25  1  0  0  0  0
 24 26  2  0  0  0  0
M  STY  1   1 DAT
M  SAL   1  1   5
M  SDT   1 MRV_IMPLICIT_H                                        
M  SDD   1     0.0000    0.0000    DR    ALL  0       0  
M  SED   1 IMPL_H1
M  END
>  <Name_Molregno>
425206

>  <5-HT1A>
5

>  <5-HT1D>
5

>  <5-HT2A>
5.71

>  <5-HT2C>
6.47

>  <5-HT3>
5

>  <5-HT5>
5

>  <5-HT6>
5

>  <5-HT7>
5

$$$$
431509
  Marvin  02231216192D 0   1.00000     0.00000     0

 14 16  0  0  0  0  0  0  0  0999 V2000
    0.0908   -0.2157    0.0000 O   0  0  0  0  0  0  0  0  0
   -0.7047    0.0026    0.0000 C   0  0  0  0  0  0  0  0  0
   -1.1582   -0.6866    0.0000 C   0  0  0  0  0  0  0  0  0
   -1.9818   -0.6385    0.0000 C   0  0  0  0  0  0  0  0  0
   -2.3275   -1.3875    0.0000 C   0  0  0  0  0  0  0  0  0
   -3.1287   -1.5843    0.0000 C   0  0  0  0  0  0  0  0  0
   -3.7821   -1.0806    0.0000 N   0  0  0  0  0  0  0  0  0
   -3.7956   -0.2557    0.0000 C   0  0  0  0  0  0  0  0  0
   -3.1592    0.2692    0.0000 C   0  0  0  0  0  0  0  0  0
   -2.3519    0.0989    0.0000 C   0  0  0  0  0  0  0  0  0
   -1.8985    0.7881    0.0000 C   0  0  0  0  0  0  0  0  0
   -1.0749    0.7399    0.0000 C   0  0  0  0  0  0  0  0  0
   -0.6429   -1.3308    0.0000 C   0  0  0  0  0  0  0  0  0
    0.1291   -1.0398    0.0000 C   0  0  0  0  0  0  0  0  0
  1  2  4  0  0  0  0
  1 14  4  0  0  0  0
  2  3  4  0  0  0  0
  2 12  4  0  0  0  0
  3  4  4  0  0  0  0
  3 13  4  0  0  0  0
  4  5  1  0  0  0  0
  4 10  4  0  0  0  0
  5  6  1  0  0  0  0
  6  7  1  0  0  0  0
  7  8  1  0  0  0  0
  8  9  1  0  0  0  0
  9 10  1  0  0  0  0
 10 11  4  0  0  0  0
 11 12  4  0  0  0  0
 13 14  4  0  0  0  0
M  END
>  <Name_Molregno>
431509

>  <5-HT2A>
7.34

>  <5-HT2C>
7.7

$$$$
431512
  Marvin  02231216192D 0   1.00000     0.00000     0

 14 16  0  0  0  0  0  0  0  0999 V2000
   -1.7183   -0.4726    0.0000 O   0  0  0  0  0  0  0  0  0
   -1.2030   -1.1168    0.0000 C   0  0  0  0  0  0  0  0  0
   -0.3794   -1.1649    0.0000 C   0  0  0  0  0  0  0  0  0
   -0.0337   -0.4159    0.0000 C   0  0  0  0  0  0  0  0  0
    0.7675   -0.2191    0.0000 C   0  0  0  0  0  0  0  0  0
    1.4208   -0.7228    0.0000 N   0  0  0  0  0  0  0  0  0
    1.4344   -1.5477    0.0000 C   0  0  0  0  0  0  0  0  0
    0.7979   -2.0726    0.0000 C   0  0  0  0  0  0  0  0  0
   -0.0093   -1.9023    0.0000 C   0  0  0  0  0  0  0  0  0
   -0.4628   -2.5915    0.0000 C   0  0  0  0  0  0  0  0  0
   -1.2864   -2.5433    0.0000 C   0  0  0  0  0  0  0  0  0
   -1.6565   -1.8060    0.0000 C   0  0  0  0  0  0  0  0  0
   -2.4521   -1.5877    0.0000 C   0  0  0  0  0  0  0  0  0
   -2.4903   -0.7636    0.0000 C   0  0  0  0  0  0  0  0  0
  1  2  4  0  0  0  0
  1 14  4  0  0  0  0
  2  3  4  0  0  0  0
  2 12  4  0  0  0  0
  3  4  1  0  0  0  0
  3  9  4  0  0  0  0
  4  5  1  0  0  0  0
  5  6  1  0  0  0  0
  6  7  1  0  0  0  0
  7  8  1  0  0  0  0
  8  9  1  0  0  0  0
  9 10  4  0  0  0  0
 10 11  4  0  0  0  0
 11 12  4  0  0  0  0
 12 13  4  0  0  0  0
 13 14  4  0  0  0  0
M  END
>  <Name_Molregno>
431512

>  <5-HT2A>
7

>  <5-HT2C>
7.64

$$$$
431551
  Marvin  02231216192D 0   1.00000     0.00000     0

 14 15  0  0  0  0  0  0  0  0999 V2000
    0.6402    0.4388    0.0000 Cl  0  0  0  0  0  0  0  0  0
    0.6402   -0.3862    0.0000 C   0  0  0  0  0  0  0  0  0
    1.3547   -0.7987    0.0000 C   0  0  0  0  0  0  0  0  0
    1.9997   -0.2844    0.0000 C   0  0  0  0  0  0  0  0  0
    2.8040   -0.4680    0.0000 C   0  0  0  0  0  0  0  0  0
    3.1620   -1.2112    0.0000 N   0  0  0  0  0  0  0  0  0
    2.8040   -1.9545    0.0000 C   0  0  0  0  0  0  0  0  0
    1.9997   -2.1381    0.0000 C   0  0  0  0  0  0  0  0  0
    1.3547   -1.6237    0.0000 C   0  0  0  0  0  0  0  0  0
    0.6402   -2.0362    0.0000 C   0  0  0  0  0  0  0  0  0
   -0.0743   -1.6238    0.0000 C   0  0  0  0  0  0  0  0  0
   -0.0743   -0.7988    0.0000 C   0  0  0  0  0  0  0  0  0
   -0.7887   -0.3863    0.0000 N   0  0  0  0  0  0  0  0  0
   -1.5032   -0.7988    0.0000 C   0  0  0  0  0  0  0  0  0
  1  2  1  0  0  0  0
  2  3  4  0  0  0  0
  2 12  4  0  0  0  0
  3  4  1  0  0  0  0
  3  9  4  0  0  0  0
  4  5  1  0  0  0  0
  5  6  1  0  0  0  0
  6  7  1  0  0  0  0
  7  8  1  0  0  0  0
  8  9  1  0  0  0  0
  9 10  4  0  0  0  0
 10 11  4  0  0  0  0
 11 12  4  0  0  0  0
 12 13  1  0  0  0  0
 13 14  1  0  0  0  0
M  END
>  <Name_Molregno>
431551

>  <5-HT2A>
7.05

>  <5-HT2C>
7.34

$$$$
431555
  Marvin  02231216192D 0   1.00000     0.00000     0

 14 15  0  0  0  0  0  0  0  0999 V2000
    0.6402    0.4388    0.0000 Cl  0  0  0  0  0  0  0  0  0
    0.6402   -0.3862    0.0000 C   0  0  0  0  0  0  0  0  0
    1.3547   -0.7987    0.0000 C   0  0  0  0  0  0  0  0  0
    1.9997   -0.2844    0.0000 C   0  0  0  0  0  0  0  0  0
    2.8040   -0.4680    0.0000 C   0  0  0  0  0  0  0  0  0
    3.1620   -1.2112    0.0000 N   0  0  0  0  0  0  0  0  0
    2.8040   -1.9545    0.0000 C   0  0  0  0  0  0  0  0  0
    1.9997   -2.1381    0.0000 C   0  0  0  0  0  0  0  0  0
    1.3547   -1.6237    0.0000 C   0  0  0  0  0  0  0  0  0
    0.6402   -2.0362    0.0000 C   0  0  0  0  0  0  0  0  0
   -0.0743   -1.6238    0.0000 C   0  0  0  0  0  0  0  0  0
   -0.0743   -0.7988    0.0000 C   0  0  0  0  0  0  0  0  0
   -0.7887   -0.3863    0.0000 O   0  0  0  0  0  0  0  0  0
   -1.5032   -0.7988    0.0000 C   0  0  0  0  0  0  0  0  0
  1  2  1  0  0  0  0
  2  3  4  0  0  0  0
  2 12  4  0  0  0  0
  3  4  1  0  0  0  0
  3  9  4  0  0  0  0
  4  5  1  0  0  0  0
  5  6  1  0  0  0  0
  6  7  1  0  0  0  0
  7  8  1  0  0  0  0
  8  9  1  0  0  0  0
  9 10  4  0  0  0  0
 10 11  4  0  0  0  0
 11 12  4  0  0  0  0
 12 13  1  0  0  0  0
 13 14  1  0  0  0  0
M  END
>  <Name_Molregno>
431555

>  <5-HT2A>
7.21

>  <5-HT2C>
7.7

$$$$
431583
  Marvin  02231216192D 0   1.00000     0.00000     0

 13 14  0  0  0  0  0  0  0  0999 V2000
    0.6066    0.5250    0.0000 Cl  0  0  0  0  0  0  0  0  0
    0.6066   -0.3000    0.0000 C   0  0  0  0  0  0  0  0  0
    1.3211   -0.7125    0.0000 C   0  0  0  0  0  0  0  0  0
    1.9661   -0.1981    0.0000 C   0  0  0  0  0  0  0  0  0
    2.7704   -0.3817    0.0000 C   0  0  0  0  0  0  0  0  0
    3.1284   -1.1250    0.0000 N   0  0  0  0  0  0  0  0  0
    2.7704   -1.8683    0.0000 C   0  0  0  0  0  0  0  0  0
    1.9661   -2.0519    0.0000 C   0  0  0  0  0  0  0  0  0
    1.3211   -1.5375    0.0000 C   0  0  0  0  0  0  0  0  0
    0.6066   -1.9500    0.0000 C   0  0  0  0  0  0  0  0  0
   -0.1079   -1.5375    0.0000 C   0  0  0  0  0  0  0  0  0
   -0.1079   -0.7125    0.0000 C   0  0  0  0  0  0  0  0  0
   -0.8223   -0.3000    0.0000 Cl  0  0  0  0  0  0  0  0  0
  1  2  1  0  0  0  0
  2  3  4  0  0  0  0
  2 12  4  0  0  0  0
  3  4  1  0  0  0  0
  3  9  4  0  0  0  0
  4  5  1  0  0  0  0
  5  6  1  0  0  0  0
  6  7  1  0  0  0  0
  7  8  1  0  0  0  0
  8  9  1  0  0  0  0
  9 10  4  0  0  0  0
 10 11  4  0  0  0  0
 11 12  4  0  0  0  0
 12 13  1  0  0  0  0
M  END
>  <Name_Molregno>
431583

>  <5-HT2A>
7.03

>  <5-HT2C>
8.06

$$$$
431584
  Marvin  02231216192D 0   1.00000     0.00000     0

 13 14  0  0  0  0  0  0  0  0999 V2000
   -0.0092    1.0867    0.0000 Br  0  0  0  0  0  0  0  0  0
    0.7053    0.6742    0.0000 C   0  0  0  0  0  0  0  0  0
    0.7053   -0.1508    0.0000 C   0  0  0  0  0  0  0  0  0
    1.4197   -0.5633    0.0000 C   0  0  0  0  0  0  0  0  0
    2.1342   -0.1508    0.0000 C   0  0  0  0  0  0  0  0  0
    2.1342    0.6742    0.0000 C   0  0  0  0  0  0  0  0  0
    2.7792    1.1886    0.0000 C   0  0  0  0  0  0  0  0  0
    3.5835    1.0050    0.0000 C   0  0  0  0  0  0  0  0  0
    3.9415    0.2617    0.0000 N   0  0  0  0  0  0  0  0  0
    3.5835   -0.4816    0.0000 C   0  0  0  0  0  0  0  0  0
    2.7792   -0.6652    0.0000 C   0  0  0  0  0  0  0  0  0
    1.4197    1.0867    0.0000 C   0  0  0  0  0  0  0  0  0
    1.4197    1.9117    0.0000 Cl  0  0  0  0  0  0  0  0  0
  1  2  1  0  0  0  0
  2  3  4  0  0  0  0
  2 12  4  0  0  0  0
  3  4  4  0  0  0  0
  4  5  4  0  0  0  0
  5  6  4  0  0  0  0
  5 11  1  0  0  0  0
  6  7  1  0  0  0  0
  6 12  4  0  0  0  0
  7  8  1  0  0  0  0
  8  9  1  0  0  0  0
  9 10  1  0  0  0  0
 10 11  1  0  0  0  0
 12 13  1  0  0  0  0
M  END
>  <Name_Molregno>
431584

>  <5-HT2A>
8

>  <5-HT2C>
8.62

$$$$
431613
  Marvin  02231216192D 0   1.00000     0.00000     0

 14 15  0  0  0  0  0  0  0  0999 V2000
    0.6156    0.4342    0.0000 Cl  0  0  0  0  0  0  0  0  0
    0.6156   -0.3908    0.0000 C   0  0  0  0  0  0  0  0  0
    1.3301   -0.8033    0.0000 C   0  0  0  0  0  0  0  0  0
    1.9751   -0.2889    0.0000 C   0  0  0  0  0  0  0  0  0
    2.7794   -0.4725    0.0000 C   0  0  0  0  0  0  0  0  0
    3.1373   -1.2158    0.0000 N   0  0  0  0  0  0  0  0  0
    2.7794   -1.9591    0.0000 C   0  0  0  0  0  0  0  0  0
    1.9751   -2.1427    0.0000 C   0  0  0  0  0  0  0  0  0
    1.3301   -1.6283    0.0000 C   0  0  0  0  0  0  0  0  0
    0.6156   -2.0408    0.0000 C   0  0  0  0  0  0  0  0  0
   -0.0989   -1.6283    0.0000 C   0  0  0  0  0  0  0  0  0
   -0.0989   -0.8033    0.0000 C   0  0  0  0  0  0  0  0  0
   -0.8133   -0.3908    0.0000 C   0  0  0  0  0  0  0  0  0
   -1.5278    0.0217    0.0000 N   0  0  0  0  0  0  0  0  0
  1  2  1  0  0  0  0
  2  3  4  0  0  0  0
  2 12  4  0  0  0  0
  3  4  1  0  0  0  0
  3  9  4  0  0  0  0
  4  5  1  0  0  0  0
  5  6  1  0  0  0  0
  6  7  1  0  0  0  0
  7  8  1  0  0  0  0
  8  9  1  0  0  0  0
  9 10  4  0  0  0  0
 10 11  4  0  0  0  0
 11 12  4  0  0  0  0
 12 13  1  0  0  0  0
 13 14  3  0  0  0  0
M  END
>  <Name_Molregno>
431613

>  <5-HT2A>
7.52

>  <5-HT2C>
8.29

$$$$
431614
  Marvin  02231216192D 0   1.00000     0.00000     0

 13 14  0  0  0  0  0  0  0  0999 V2000
    0.6066    0.5250    0.0000 Cl  0  0  0  0  0  0  0  0  0
    0.6066   -0.3000    0.0000 C   0  0  0  0  0  0  0  0  0
    1.3211   -0.7125    0.0000 C   0  0  0  0  0  0  0  0  0
    1.9661   -0.1981    0.0000 C   0  0  0  0  0  0  0  0  0
    2.7704   -0.3817    0.0000 C   0  0  0  0  0  0  0  0  0
    3.1284   -1.1250    0.0000 N   0  0  0  0  0  0  0  0  0
    2.7704   -1.8683    0.0000 C   0  0  0  0  0  0  0  0  0
    1.9661   -2.0519    0.0000 C   0  0  0  0  0  0  0  0  0
    1.3211   -1.5375    0.0000 C   0  0  0  0  0  0  0  0  0
    0.6066   -1.9500    0.0000 C   0  0  0  0  0  0  0  0  0
   -0.1079   -1.5375    0.0000 C   0  0  0  0  0  0  0  0  0
   -0.1079   -0.7125    0.0000 C   0  0  0  0  0  0  0  0  0
   -0.8223   -0.3000    0.0000 F   0  0  0  0  0  0  0  0  0
  1  2  1  0  0  0  0
  2  3  4  0  0  0  0
  2 12  4  0  0  0  0
  3  4  1  0  0  0  0
  3  9  4  0  0  0  0
  4  5  1  0  0  0  0
  5  6  1  0  0  0  0
  6  7  1  0  0  0  0
  7  8  1  0  0  0  0
  8  9  1  0  0  0  0
  9 10  4  0  0  0  0
 10 11  4  0  0  0  0
 11 12  4  0  0  0  0
 12 13  1  0  0  0  0
M  END
>  <Name_Molregno>
431614

>  <5-HT2A>
6.89

>  <5-HT2C>
7.37

$$$$
431634
  Marvin  02231216192D 0   1.00000     0.00000     0

 15 16  0  0  0  0  0  0  0  0999 V2000
    0.6041    0.3550    0.0000 Cl  0  0  0  0  0  0  0  0  0
    0.6041   -0.4700    0.0000 C   0  0  0  0  0  0  0  0  0
    1.3185   -0.8825    0.0000 C   0  0  0  0  0  0  0  0  0
    1.9636   -0.3681    0.0000 C   0  0  0  0  0  0  0  0  0
    2.7679   -0.5517    0.0000 C   0  0  0  0  0  0  0  0  0
    3.1258   -1.2950    0.0000 N   0  0  0  0  0  0  0  0  0
    2.7679   -2.0383    0.0000 C   0  0  0  0  0  0  0  0  0
    1.9636   -2.2218    0.0000 C   0  0  0  0  0  0  0  0  0
    1.3185   -1.7075    0.0000 C   0  0  0  0  0  0  0  0  0
    0.6041   -2.1200    0.0000 C   0  0  0  0  0  0  0  0  0
   -0.1104   -1.7075    0.0000 C   0  0  0  0  0  0  0  0  0
   -0.1104   -0.8825    0.0000 C   0  0  0  0  0  0  0  0  0
   -0.8249   -0.4700    0.0000 N   0  3  0  0  0  0  0  0  0
   -1.5393   -0.8825    0.0000 O   0  5  0  0  0  0  0  0  0
   -0.8249    0.3550    0.0000 O   0  5  0  0  0  0  0  0  0
  1  2  1  0  0  0  0
  2  3  4  0  0  0  0
  2 12  4  0  0  0  0
  3  4  1  0  0  0  0
  3  9  4  0  0  0  0
  4  5  1  0  0  0  0
  5  6  1  0  0  0  0
  6  7  1  0  0  0  0
  7  8  1  0  0  0  0
  8  9  1  0  0  0  0
  9 10  4  0  0  0  0
 10 11  4  0  0  0  0
 11 12  4  0  0  0  0
 12 13  1  0  0  0  0
 13 14  1  0  0  0  0
 13 15  1  0  0  0  0
M  CHG  3  13   1  14  -1  15  -1
M  END
>  <Name_Molregno>
431634

>  <5-HT2A>
7.29

>  <5-HT2C>
7.85

$$$$
431635
  Marvin  02231216192D 0   1.00000     0.00000     0

 18 20  0  0  1  0  0  0  0  0999 V2000
   -0.1508    0.9322    0.0000 O   0  0  0  0  0  0  0  0  0
   -0.9578    1.1037    0.0000 C   0  0  0  0  0  0  0  0  0
   -1.3703    0.3892    0.0000 C   0  0  0  0  0  0  0  0  0
   -0.8183   -0.2239    0.0000 C   0  0  0  0  0  0  0  0  0
   -0.0646    0.1117    0.0000 C   0  0  0  0  0  0  0  0  0
    0.6499   -0.3008    0.0000 C   0  0  0  0  0  0  0  0  0
    1.3643    0.1117    0.0000 C   0  0  0  0  0  0  0  0  0
   -2.1953    0.3892    0.0000 C   0  0  0  0  0  0  0  0  0
   -2.7474   -0.2239    0.0000 N   0  0  0  0  0  0  0  0  0
   -3.5010    0.1117    0.0000 N   0  0  0  0  0  0  0  0  0
   -3.4148    0.9322    0.0000 C   0  0  0  0  0  0  0  0  0
   -2.6078    1.1037    0.0000 C   0  0  0  0  0  0  0  0  0
   -2.1953    1.8182    0.0000 C   0  0  0  0  0  0  0  0  0
   -1.3703    1.8182    0.0000 C   0  0  0  0  0  0  0  0  0
   -2.5758   -1.0308    0.0000 C   0  0  0  0  0  0  0  0  0
   -3.1889   -1.5829    0.0000 C   0  0  0  0  0  0  0  0  0
   -3.0174   -2.3898    0.0000 N   0  0  0  0  0  0  0  0  0
   -3.9735   -1.3279    0.0000 C   0  0  0  0  0  0  0  0  0
  1  2  4  0  0  0  0
  1  5  4  0  0  0  0
  2  3  4  0  0  0  0
  2 14  4  0  0  0  0
  3  4  4  0  0  0  0
  3  8  4  0  0  0  0
  4  5  4  0  0  0  0
  5  6  1  0  0  0  0
  6  7  1  0  0  0  0
  8  9  4  0  0  0  0
  8 12  4  0  0  0  0
  9 10  4  0  0  0  0
  9 15  1  0  0  0  0
 10 11  4  0  0  0  0
 11 12  4  0  0  0  0
 12 13  4  0  0  0  0
 13 14  4  0  0  0  0
 15 16  1  0  0  0  0
 16 17  1  0  0  0  0
 16 18  1  0  0  0  0
M  END
>  <Name_Molregno>
431635

>  <5-HT1A>
6.89

>  <5-HT2A>
7.89

>  <5-HT2C>
9.05

>  <5-HT7>
6.75

>  <Alpha-2A>
6.9

$$$$
431636
  Marvin  02231216192D 0   1.00000     0.00000     0

 16 17  0  0  0  0  0  0  0  0999 V2000
    0.5866    0.4530    0.0000 Cl  0  0  0  0  0  0  0  0  0
    0.5866   -0.3720    0.0000 C   0  0  0  0  0  0  0  0  0
    1.3011   -0.7845    0.0000 C   0  0  0  0  0  0  0  0  0
    1.9461   -0.2701    0.0000 C   0  0  0  0  0  0  0  0  0
    2.7504   -0.4537    0.0000 C   0  0  0  0  0  0  0  0  0
    3.1083   -1.1970    0.0000 N   0  0  0  0  0  0  0  0  0
    2.7504   -1.9403    0.0000 C   0  0  0  0  0  0  0  0  0
    1.9461   -2.1238    0.0000 C   0  0  0  0  0  0  0  0  0
    1.3011   -1.6095    0.0000 C   0  0  0  0  0  0  0  0  0
    0.5866   -2.0220    0.0000 C   0  0  0  0  0  0  0  0  0
   -0.1279   -1.6095    0.0000 C   0  0  0  0  0  0  0  0  0
   -0.1279   -0.7845    0.0000 C   0  0  0  0  0  0  0  0  0
   -0.8423   -0.3720    0.0000 N   0  3  0  0  0  0  0  0  0
   -1.5568   -0.7845    0.0000 O   0  5  0  0  0  0  0  0  0
   -0.8423    0.4530    0.0000 O   0  5  0  0  0  0  0  0  0
    3.9333   -1.1970    0.0000 C   0  0  0  0  0  0  0  0  0
  1  2  1  0  0  0  0
  2  3  4  0  0  0  0
  2 12  4  0  0  0  0
  3  4  1  0  0  0  0
  3  9  4  0  0  0  0
  4  5  1  0  0  0  0
  5  6  1  0  0  0  0
  6  7  1  0  0  0  0
  6 16  1  0  0  0  0
  7  8  1  0  0  0  0
  8  9  1  0  0  0  0
  9 10  4  0  0  0  0
 10 11  4  0  0  0  0
 11 12  4  0  0  0  0
 12 13  1  0  0  0  0
 13 14  1  0  0  0  0
 13 15  1  0  0  0  0
M  CHG  3  13   1  14  -1  15  -1
M  END
>  <Name_Molregno>
431636

>  <5-HT2A>
6.4

>  <5-HT2C>
7.18

$$$$
433485
  Marvin  02231216192D 0   1.00000     0.00000     0

 18 20  0  0  1  0  0  0  0  0999 V2000
   -0.3325    0.3328    0.0000 O   0  0  0  0  0  0  0  0  0
   -1.1395    0.5043    0.0000 C   0  0  0  0  0  0  0  0  0
   -1.5520   -0.2102    0.0000 C   0  0  0  0  0  0  0  0  0
   -2.3770   -0.2102    0.0000 C   0  0  0  0  0  0  0  0  0
   -2.9290   -0.8233    0.0000 N   0  0  0  0  0  0  0  0  0
   -3.6827   -0.4877    0.0000 N   0  0  0  0  0  0  0  0  0
   -3.5964    0.3328    0.0000 C   0  0  0  0  0  0  0  0  0
   -4.2095    0.8848    0.0000 O   0  0  0  0  0  0  0  0  0
   -4.9942    0.6298    0.0000 C   0  0  0  0  0  0  0  0  0
   -2.7895    0.5043    0.0000 C   0  0  0  0  0  0  0  0  0
   -2.3770    1.2188    0.0000 C   0  0  0  0  0  0  0  0  0
   -1.5520    1.2188    0.0000 C   0  0  0  0  0  0  0  0  0
   -2.7575   -1.6303    0.0000 C   0  0  0  0  0  0  0  0  0
   -1.9729   -1.8852    0.0000 C   0  0  0  0  0  0  0  0  0
   -1.3598   -1.3332    0.0000 N   0  0  0  0  0  0  0  0  0
   -1.8013   -2.6922    0.0000 C   0  0  0  0  0  0  0  0  0
   -0.9999   -0.8233    0.0000 C   0  0  0  0  0  0  0  0  0
   -0.2463   -0.4877    0.0000 C   0  0  0  0  0  0  0  0  0
  1  2  4  0  0  0  0
  1 18  4  0  0  0  0
  2  3  4  0  0  0  0
  2 12  4  0  0  0  0
  3  4  4  0  0  0  0
  3 17  4  0  0  0  0
  4  5  4  0  0  0  0
  4 10  4  0  0  0  0
  5  6  4  0  0  0  0
  5 13  1  0  0  0  0
  6  7  4  0  0  0  0
  7  8  1  0  0  0  0
  7 10  4  0  0  0  0
  8  9  1  0  0  0  0
 10 11  4  0  0  0  0
 11 12  4  0  0  0  0
 13 14  1  0  0  0  0
 14 15  1  0  0  0  0
 14 16  1  0  0  0  0
 17 18  4  0  0  0  0
M  END
>  <Name_Molregno>
433485

>  <5-HT2A>
8.06

>  <5-HT2C>
9.29

$$$$
433486
  Marvin  02231216192D 0   1.00000     0.00000     0

 17 19  0  0  1  0  0  0  0  0999 V2000
   -0.1305    0.8763    0.0000 O   0  0  0  0  0  0  0  0  0
   -0.9375    1.0478    0.0000 C   0  0  0  0  0  0  0  0  0
   -1.3500    0.3333    0.0000 C   0  0  0  0  0  0  0  0  0
   -0.7980   -0.2798    0.0000 C   0  0  0  0  0  0  0  0  0
   -0.0443    0.0558    0.0000 C   0  0  0  0  0  0  0  0  0
    0.6702   -0.3567    0.0000 C   0  0  0  0  0  0  0  0  0
   -2.1750    0.3333    0.0000 C   0  0  0  0  0  0  0  0  0
   -2.7270   -0.2798    0.0000 N   0  0  0  0  0  0  0  0  0
   -3.4807    0.0558    0.0000 N   0  0  0  0  0  0  0  0  0
   -3.3945    0.8763    0.0000 C   0  0  0  0  0  0  0  0  0
   -2.5875    1.0478    0.0000 C   0  0  0  0  0  0  0  0  0
   -2.1750    1.7623    0.0000 C   0  0  0  0  0  0  0  0  0
   -1.3500    1.7623    0.0000 C   0  0  0  0  0  0  0  0  0
   -2.5555   -1.0868    0.0000 C   0  0  0  0  0  0  0  0  0
   -3.1686   -1.6388    0.0000 C   0  0  0  0  0  0  0  0  0
   -2.9971   -2.4458    0.0000 N   0  0  0  0  0  0  0  0  0
   -3.9532   -1.3839    0.0000 C   0  0  0  0  0  0  0  0  0
  1  2  4  0  0  0  0
  1  5  4  0  0  0  0
  2  3  4  0  0  0  0
  2 13  4  0  0  0  0
  3  4  4  0  0  0  0
  3  7  4  0  0  0  0
  4  5  4  0  0  0  0
  5  6  1  0  0  0  0
  7  8  4  0  0  0  0
  7 11  4  0  0  0  0
  8  9  4  0  0  0  0
  8 14  1  0  0  0  0
  9 10  4  0  0  0  0
 10 11  4  0  0  0  0
 11 12  4  0  0  0  0
 12 13  4  0  0  0  0
 14 15  1  0  0  0  0
 15 16  1  0  0  0  0
 15 17  1  0  0  0  0
M  END
>  <Name_Molregno>
433486

>  <5-HT2A>
9.11

>  <5-HT2C>
9.7

$$$$
433520
  Marvin  02231216192D 0   1.00000     0.00000     0

 17 19  0  0  1  0  0  0  0  0999 V2000
   -0.0600    0.5657    0.0000 O   0  0  0  0  0  0  0  0  0
   -0.8669    0.7373    0.0000 C   0  0  0  0  0  0  0  0  0
   -1.2794    0.0228    0.0000 C   0  0  0  0  0  0  0  0  0
   -2.1044    0.0228    0.0000 C   0  0  0  0  0  0  0  0  0
   -2.6565   -0.5903    0.0000 N   0  0  0  0  0  0  0  0  0
   -3.4101   -0.2548    0.0000 N   0  0  0  0  0  0  0  0  0
   -3.3239    0.5657    0.0000 C   0  0  0  0  0  0  0  0  0
   -2.5169    0.7373    0.0000 C   0  0  0  0  0  0  0  0  0
   -2.1044    1.4517    0.0000 C   0  0  0  0  0  0  0  0  0
   -1.2794    1.4517    0.0000 C   0  0  0  0  0  0  0  0  0
   -3.9370    1.1178    0.0000 C   0  0  0  0  0  0  0  0  0
   -2.4849   -1.3973    0.0000 C   0  0  0  0  0  0  0  0  0
   -3.0980   -1.9493    0.0000 C   0  0  0  0  0  0  0  0  0
   -2.9265   -2.7563    0.0000 N   0  0  0  0  0  0  0  0  0
   -3.8826   -1.6944    0.0000 C   0  0  0  0  0  0  0  0  0
   -0.7274   -0.5903    0.0000 C   0  0  0  0  0  0  0  0  0
    0.0263   -0.2548    0.0000 C   0  0  0  0  0  0  0  0  0
  1  2  4  0  0  0  0
  1 17  4  0  0  0  0
  2  3  4  0  0  0  0
  2 10  4  0  0  0  0
  3  4  4  0  0  0  0
  3 16  4  0  0  0  0
  4  5  4  0  0  0  0
  4  8  4  0  0  0  0
  5  6  4  0  0  0  0
  5 12  1  0  0  0  0
  6  7  4  0  0  0  0
  7  8  4  0  0  0  0
  7 11  1  0  0  0  0
  8  9  4  0  0  0  0
  9 10  4  0  0  0  0
 12 13  1  0  0  0  0
 13 14  1  0  0  0  0
 13 15  1  0  0  0  0
 16 17  4  0  0  0  0
M  END
>  <Name_Molregno>
433520

>  <5-HT2A>
7.77

>  <5-HT2C>
7.89

$$$$
433521
  Marvin  02231216192D 0   1.00000     0.00000     0

 18 20  0  0  1  0  0  0  0  0999 V2000
   -0.3325    0.3328    0.0000 O   0  0  0  0  0  0  0  0  0
   -1.1395    0.5043    0.0000 C   0  0  0  0  0  0  0  0  0
   -1.5520   -0.2102    0.0000 C   0  0  0  0  0  0  0  0  0
   -2.3770   -0.2102    0.0000 C   0  0  0  0  0  0  0  0  0
   -2.9290   -0.8233    0.0000 N   0  0  0  0  0  0  0  0  0
   -3.6827   -0.4877    0.0000 N   0  0  0  0  0  0  0  0  0
   -3.5964    0.3328    0.0000 C   0  0  0  0  0  0  0  0  0
   -2.7895    0.5043    0.0000 C   0  0  0  0  0  0  0  0  0
   -2.3770    1.2188    0.0000 C   0  0  0  0  0  0  0  0  0
   -1.5520    1.2188    0.0000 C   0  0  0  0  0  0  0  0  0
   -4.2095    0.8848    0.0000 C   0  0  0  0  0  0  0  0  0
   -4.9942    0.6298    0.0000 C   0  0  0  0  0  0  0  0  0
   -2.7575   -1.6303    0.0000 C   0  0  0  0  0  0  0  0  0
   -1.9729   -1.8852    0.0000 C   0  0  0  0  0  0  0  0  0
   -1.3598   -1.3332    0.0000 N   0  0  0  0  0  0  0  0  0
   -1.8013   -2.6922    0.0000 C   0  0  0  0  0  0  0  0  0
   -0.9999   -0.8233    0.0000 C   0  0  0  0  0  0  0  0  0
   -0.2463   -0.4877    0.0000 C   0  0  0  0  0  0  0  0  0
  1  2  4  0  0  0  0
  1 18  4  0  0  0  0
  2  3  4  0  0  0  0
  2 10  4  0  0  0  0
  3  4  4  0  0  0  0
  3 17  4  0  0  0  0
  4  5  4  0  0  0  0
  4  8  4  0  0  0  0
  5  6  4  0  0  0  0
  5 13  1  0  0  0  0
  6  7  4  0  0  0  0
  7  8  4  0  0  0  0
  7 11  1  0  0  0  0
  8  9  4  0  0  0  0
  9 10  4  0  0  0  0
 11 12  1  0  0  0  0
 13 14  1  0  0  0  0
 14 15  1  0  0  0  0
 14 16  1  0  0  0  0
 17 18  4  0  0  0  0
M  END
>  <Name_Molregno>
433521

>  <5-HT2A>
7.96

>  <5-HT2C>
8.6

$$$$
433522
  Marvin  02231216192D 0   1.00000     0.00000     0

 19 21  0  0  1  0  0  0  0  0999 V2000
    4.3697   -0.0086    0.0000 O   0  0  0  0  0  0  0  0  0
    3.5627    0.1629    0.0000 C   0  0  0  0  0  0  0  0  0
    3.1502   -0.5516    0.0000 C   0  0  0  0  0  0  0  0  0
    2.3252   -0.5516    0.0000 C   0  0  0  0  0  0  0  0  0
    1.7732   -1.1647    0.0000 N   0  0  0  0  0  0  0  0  0
    1.0195   -0.8291    0.0000 N   0  0  0  0  0  0  0  0  0
    1.1058   -0.0086    0.0000 C   0  0  0  0  0  0  0  0  0
    1.9127    0.1629    0.0000 C   0  0  0  0  0  0  0  0  0
    2.3252    0.8774    0.0000 C   0  0  0  0  0  0  0  0  0
    3.1502    0.8774    0.0000 C   0  0  0  0  0  0  0  0  0
    0.4927    0.5434    0.0000 C   0  0  0  0  0  0  0  0  0
    0.6642    1.3504    0.0000 C   0  0  0  0  0  0  0  0  0
    0.0511    1.9024    0.0000 C   0  0  0  0  0  0  0  0  0
    1.9447   -1.9716    0.0000 C   0  0  0  0  0  0  0  0  0
    2.7293   -2.2266    0.0000 C   0  0  0  0  0  0  0  0  0
    3.3424   -1.6745    0.0000 N   0  0  0  0  0  0  0  0  0
    2.9009   -3.0335    0.0000 C   0  0  0  0  0  0  0  0  0
    3.7023   -1.1647    0.0000 C   0  0  0  0  0  0  0  0  0
    4.4559   -0.8291    0.0000 C   0  0  0  0  0  0  0  0  0
  1  2  4  0  0  0  0
  1 19  4  0  0  0  0
  2  3  4  0  0  0  0
  2 10  4  0  0  0  0
  3  4  4  0  0  0  0
  3 18  4  0  0  0  0
  4  5  4  0  0  0  0
  4  8  4  0  0  0  0
  5  6  4  0  0  0  0
  5 14  1  0  0  0  0
  6  7  4  0  0  0  0
  7  8  4  0  0  0  0
  7 11  1  0  0  0  0
  8  9  4  0  0  0  0
  9 10  4  0  0  0  0
 11 12  1  0  0  0  0
 12 13  1  0  0  0  0
 14 15  1  0  0  0  0
 15 16  1  0  0  0  0
 15 17  1  0  0  0  0
 18 19  4  0  0  0  0
M  END
>  <Name_Molregno>
433522

>  <5-HT2A>
7.19

>  <5-HT2C>
7.6

$$$$
433523
  Marvin  02231216192D 0   1.00000     0.00000     0

 16 18  0  0  1  0  0  0  0  0999 V2000
   -0.1030    0.7512    0.0000 O   0  0  0  0  0  0  0  0  0
   -0.9099    0.9227    0.0000 C   0  0  0  0  0  0  0  0  0
   -1.3224    0.2082    0.0000 C   0  0  0  0  0  0  0  0  0
   -0.7704   -0.4049    0.0000 N   0  0  0  0  0  0  0  0  0
   -0.0167   -0.0693    0.0000 C   0  0  0  0  0  0  0  0  0
   -2.1474    0.2082    0.0000 C   0  0  0  0  0  0  0  0  0
   -2.6995   -0.4049    0.0000 N   0  0  0  0  0  0  0  0  0
   -3.4532   -0.0693    0.0000 N   0  0  0  0  0  0  0  0  0
   -3.3669    0.7512    0.0000 C   0  0  0  0  0  0  0  0  0
   -2.5599    0.9227    0.0000 C   0  0  0  0  0  0  0  0  0
   -2.1474    1.6372    0.0000 C   0  0  0  0  0  0  0  0  0
   -1.3224    1.6372    0.0000 C   0  0  0  0  0  0  0  0  0
   -2.5280   -1.2118    0.0000 C   0  0  0  0  0  0  0  0  0
   -3.1410   -1.7639    0.0000 C   0  0  0  0  0  0  0  0  0
   -2.9695   -2.5708    0.0000 N   0  0  0  0  0  0  0  0  0
   -3.9257   -1.5089    0.0000 C   0  0  0  0  0  0  0  0  0
  1  2  4  0  0  0  0
  1  5  4  0  0  0  0
  2  3  4  0  0  0  0
  2 12  4  0  0  0  0
  3  4  4  0  0  0  0
  3  6  4  0  0  0  0
  4  5  4  0  0  0  0
  6  7  4  0  0  0  0
  6 10  4  0  0  0  0
  7  8  4  0  0  0  0
  7 13  1  0  0  0  0
  8  9  4  0  0  0  0
  9 10  4  0  0  0  0
 10 11  4  0  0  0  0
 11 12  4  0  0  0  0
 13 14  1  0  0  0  0
 14 15  1  0  0  0  0
 14 16  1  0  0  0  0
M  END
>  <Name_Molregno>
433523

>  <5-HT2A>
7.33

>  <5-HT2C>
7.23

$$$$
433553
  Marvin  02231216192D 0   1.00000     0.00000     0

 15 16  0  0  1  0  0  0  0  0999 V2000
    0.6648   -2.3891    0.0000 Cl  0  0  0  0  0  0  0  0  0
    0.6648   -1.5641    0.0000 C   0  0  0  0  0  0  0  0  0
   -0.0497   -1.1516    0.0000 C   0  0  0  0  0  0  0  0  0
   -0.8343   -1.4065    0.0000 N   0  0  0  0  0  0  0  0  0
   -1.3192   -0.7391    0.0000 N   0  0  0  0  0  0  0  0  0
   -0.8343   -0.0716    0.0000 C   0  0  0  0  0  0  0  0  0
   -0.0497   -0.3266    0.0000 C   0  0  0  0  0  0  0  0  0
    0.6648    0.0859    0.0000 C   0  0  0  0  0  0  0  0  0
    1.3793   -0.3266    0.0000 C   0  0  0  0  0  0  0  0  0
    1.3793   -1.1516    0.0000 C   0  0  0  0  0  0  0  0  0
    2.0938   -1.5641    0.0000 Cl  0  0  0  0  0  0  0  0  0
   -1.0892   -2.1911    0.0000 C   0  0  0  0  0  0  0  0  0
   -1.8962   -2.3627    0.0000 C   0  0  0  0  0  0  0  0  0
   -2.1511   -3.1473    0.0000 N   0  0  0  0  0  0  0  0  0
   -2.4482   -1.7496    0.0000 C   0  0  0  0  0  0  0  0  0
  1  2  1  0  0  0  0
  2  3  4  0  0  0  0
  2 10  4  0  0  0  0
  3  4  4  0  0  0  0
  3  7  4  0  0  0  0
  4  5  4  0  0  0  0
  4 12  1  0  0  0  0
  5  6  4  0  0  0  0
  6  7  4  0  0  0  0
  7  8  4  0  0  0  0
  8  9  4  0  0  0  0
  9 10  4  0  0  0  0
 10 11  1  0  0  0  0
 12 13  1  0  0  0  0
 13 14  1  0  0  0  0
 13 15  1  0  0  0  0
M  END
>  <Name_Molregno>
433553

>  <5-HT2A>
8.04

>  <5-HT2C>
8.4

$$$$
433554
  Marvin  02231216192D 0   1.00000     0.00000     0

 16 18  0  0  1  0  0  0  0  0999 V2000
   -0.1030    0.7512    0.0000 S   0  0  0  0  0  0  0  0  0
   -0.9099    0.9227    0.0000 C   0  0  0  0  0  0  0  0  0
   -1.3224    0.2082    0.0000 C   0  0  0  0  0  0  0  0  0
   -2.1474    0.2082    0.0000 C   0  0  0  0  0  0  0  0  0
   -2.6995   -0.4049    0.0000 N   0  0  0  0  0  0  0  0  0
   -3.4532   -0.0693    0.0000 N   0  0  0  0  0  0  0  0  0
   -3.3669    0.7512    0.0000 C   0  0  0  0  0  0  0  0  0
   -2.5599    0.9227    0.0000 C   0  0  0  0  0  0  0  0  0
   -2.1474    1.6372    0.0000 C   0  0  0  0  0  0  0  0  0
   -1.3224    1.6372    0.0000 C   0  0  0  0  0  0  0  0  0
   -2.5280   -1.2118    0.0000 C   0  0  0  0  0  0  0  0  0
   -3.1410   -1.7639    0.0000 C   0  0  0  0  0  0  0  0  0
   -2.9695   -2.5708    0.0000 N   0  0  0  0  0  0  0  0  0
   -3.9257   -1.5089    0.0000 C   0  0  0  0  0  0  0  0  0
   -0.7704   -0.4049    0.0000 C   0  0  0  0  0  0  0  0  0
   -0.0167   -0.0693    0.0000 C   0  0  0  0  0  0  0  0  0
  1  2  4  0  0  0  0
  1 16  4  0  0  0  0
  2  3  4  0  0  0  0
  2 10  4  0  0  0  0
  3  4  4  0  0  0  0
  3 15  4  0  0  0  0
  4  5  4  0  0  0  0
  4  8  4  0  0  0  0
  5  6  4  0  0  0  0
  5 11  1  0  0  0  0
  6  7  4  0  0  0  0
  7  8  4  0  0  0  0
  8  9  4  0  0  0  0
  9 10  4  0  0  0  0
 11 12  1  0  0  0  0
 12 13  1  0  0  0  0
 12 14  1  0  0  0  0
 15 16  4  0  0  0  0
M  END
>  <Name_Molregno>
433554

>  <5-HT2A>
8.17

>  <5-HT2C>
8.85

$$$$
433555
  Marvin  02231216192D 0   1.00000     0.00000     0

 16 18  0  0  1  0  0  0  0  0999 V2000
   -0.1030    0.7512    0.0000 O   0  0  0  0  0  0  0  0  0
   -0.9099    0.9227    0.0000 C   0  0  0  0  0  0  0  0  0
   -1.3224    0.2082    0.0000 C   0  0  0  0  0  0  0  0  0
   -2.1474    0.2082    0.0000 C   0  0  0  0  0  0  0  0  0
   -2.6995   -0.4049    0.0000 N   0  0  0  0  0  0  0  0  0
   -3.4532   -0.0693    0.0000 N   0  0  0  0  0  0  0  0  0
   -3.3669    0.7512    0.0000 C   0  0  0  0  0  0  0  0  0
   -2.5599    0.9227    0.0000 C   0  0  0  0  0  0  0  0  0
   -2.1474    1.6372    0.0000 C   0  0  0  0  0  0  0  0  0
   -1.3224    1.6372    0.0000 C   0  0  0  0  0  0  0  0  0
   -2.5280   -1.2118    0.0000 C   0  0  0  0  0  0  0  0  0
   -3.1410   -1.7639    0.0000 C   0  0  0  0  0  0  0  0  0
   -2.9695   -2.5708    0.0000 N   0  0  0  0  0  0  0  0  0
   -3.9257   -1.5089    0.0000 C   0  0  0  0  0  0  0  0  0
   -0.7704   -0.4049    0.0000 C   0  0  0  0  0  0  0  0  0
   -0.0167   -0.0693    0.0000 C   0  0  0  0  0  0  0  0  0
  1  2  4  0  0  0  0
  1 16  4  0  0  0  0
  2  3  4  0  0  0  0
  2 10  4  0  0  0  0
  3  4  4  0  0  0  0
  3 15  4  0  0  0  0
  4  5  4  0  0  0  0
  4  8  4  0  0  0  0
  5  6  4  0  0  0  0
  5 11  1  0  0  0  0
  6  7  4  0  0  0  0
  7  8  4  0  0  0  0
  8  9  4  0  0  0  0
  9 10  4  0  0  0  0
 11 12  1  0  0  0  0
 12 13  1  0  0  0  0
 12 14  1  0  0  0  0
 15 16  4  0  0  0  0
M  END
>  <Name_Molregno>
433555

>  <5-HT2A>
9.11

>  <5-HT2C>
9.7

$$$$
433580
  Marvin  02231216192D 0   1.00000     0.00000     0

 16 17  0  0  1  0  0  0  0  0999 V2000
    0.6274   -2.3152    0.0000 Cl  0  0  0  0  0  0  0  0  0
    0.6274   -1.4902    0.0000 C   0  0  0  0  0  0  0  0  0
   -0.0871   -1.0777    0.0000 C   0  0  0  0  0  0  0  0  0
   -0.8717   -1.3327    0.0000 N   0  0  0  0  0  0  0  0  0
   -1.3567   -0.6652    0.0000 N   0  0  0  0  0  0  0  0  0
   -0.8717    0.0022    0.0000 C   0  0  0  0  0  0  0  0  0
   -0.0871   -0.2527    0.0000 C   0  0  0  0  0  0  0  0  0
    0.6274    0.1598    0.0000 C   0  0  0  0  0  0  0  0  0
    1.3418   -0.2527    0.0000 C   0  0  0  0  0  0  0  0  0
    1.3418   -1.0777    0.0000 C   0  0  0  0  0  0  0  0  0
    2.0563   -1.4902    0.0000 O   0  0  0  0  0  0  0  0  0
    2.7708   -1.0777    0.0000 C   0  0  0  0  0  0  0  0  0
   -1.1267   -2.1173    0.0000 C   0  0  0  0  0  0  0  0  0
   -1.9337   -2.2888    0.0000 C   0  0  0  0  0  0  0  0  0
   -2.1886   -3.0734    0.0000 N   0  0  0  0  0  0  0  0  0
   -2.4857   -1.6757    0.0000 C   0  0  0  0  0  0  0  0  0
  1  2  1  0  0  0  0
  2  3  4  0  0  0  0
  2 10  4  0  0  0  0
  3  4  4  0  0  0  0
  3  7  4  0  0  0  0
  4  5  4  0  0  0  0
  4 13  1  0  0  0  0
  5  6  4  0  0  0  0
  6  7  4  0  0  0  0
  7  8  4  0  0  0  0
  8  9  4  0  0  0  0
  9 10  4  0  0  0  0
 10 11  1  0  0  0  0
 11 12  1  0  0  0  0
 13 14  1  0  0  0  0
 14 15  1  0  0  0  0
 14 16  1  0  0  0  0
M  END
>  <Name_Molregno>
433580

>  <5-HT2A>
5.92

>  <5-HT2C>
6.85

$$$$
433581
  Marvin  02231216192D 0   1.00000     0.00000     0

 15 16  0  0  1  0  0  0  0  0999 V2000
    4.4044   -1.3275    0.0000 Cl  0  0  0  0  0  0  0  0  0
    3.6899   -0.9150    0.0000 C   0  0  0  0  0  0  0  0  0
    2.9755   -1.3275    0.0000 C   0  0  0  0  0  0  0  0  0
    2.2610   -0.9150    0.0000 C   0  0  0  0  0  0  0  0  0
    2.2610   -0.0900    0.0000 C   0  0  0  0  0  0  0  0  0
    1.4764    0.1649    0.0000 N   0  0  0  0  0  0  0  0  0
    0.9915   -0.5025    0.0000 N   0  0  0  0  0  0  0  0  0
    1.4764   -1.1700    0.0000 C   0  0  0  0  0  0  0  0  0
    1.2214    0.9495    0.0000 C   0  0  0  0  0  0  0  0  0
    1.7735    1.5626    0.0000 C   0  0  0  0  0  0  0  0  0
    1.5185    2.3472    0.0000 N   0  0  0  0  0  0  0  0  0
    2.5804    1.3911    0.0000 C   0  0  0  0  0  0  0  0  0
    2.9755    0.3225    0.0000 C   0  0  0  0  0  0  0  0  0
    3.6899   -0.0900    0.0000 C   0  0  0  0  0  0  0  0  0
    4.4044    0.3225    0.0000 Cl  0  0  0  0  0  0  0  0  0
  1  2  1  0  0  0  0
  2  3  4  0  0  0  0
  2 14  4  0  0  0  0
  3  4  4  0  0  0  0
  4  5  4  0  0  0  0
  4  8  4  0  0  0  0
  5  6  4  0  0  0  0
  5 13  4  0  0  0  0
  6  7  4  0  0  0  0
  6  9  1  0  0  0  0
  7  8  4  0  0  0  0
  9 10  1  0  0  0  0
 10 11  1  0  0  0  0
 10 12  1  0  0  0  0
 13 14  4  0  0  0  0
 14 15  1  0  0  0  0
M  END
>  <Name_Molregno>
433581

>  <5-HT2A>
7.96

>  <5-HT2C>
8.12

$$$$
433584
  Marvin  02231216192D 0   1.00000     0.00000     0

 14 15  0  0  1  0  0  0  0  0999 V2000
    0.1624   -1.0405    0.0000 F   0  0  0  0  0  0  0  0  0
   -0.5521   -0.6280    0.0000 C   0  0  0  0  0  0  0  0  0
   -1.2666   -1.0405    0.0000 C   0  0  0  0  0  0  0  0  0
   -1.9811   -0.6280    0.0000 C   0  0  0  0  0  0  0  0  0
   -2.7657   -0.8829    0.0000 N   0  0  0  0  0  0  0  0  0
   -3.2506   -0.2155    0.0000 N   0  0  0  0  0  0  0  0  0
   -2.7657    0.4520    0.0000 C   0  0  0  0  0  0  0  0  0
   -1.9811    0.1970    0.0000 C   0  0  0  0  0  0  0  0  0
   -1.2666    0.6095    0.0000 C   0  0  0  0  0  0  0  0  0
   -0.5521    0.1970    0.0000 C   0  0  0  0  0  0  0  0  0
   -3.0206   -1.6675    0.0000 C   0  0  0  0  0  0  0  0  0
   -3.8276   -1.8391    0.0000 C   0  0  0  0  0  0  0  0  0
   -4.0825   -2.6237    0.0000 N   0  0  0  0  0  0  0  0  0
   -4.3796   -1.2260    0.0000 C   0  0  0  0  0  0  0  0  0
  1  2  1  0  0  0  0
  2  3  4  0  0  0  0
  2 10  4  0  0  0  0
  3  4  4  0  0  0  0
  4  5  4  0  0  0  0
  4  8  4  0  0  0  0
  5  6  4  0  0  0  0
  5 11  1  0  0  0  0
  6  7  4  0  0  0  0
  7  8  4  0  0  0  0
  8  9  4  0  0  0  0
  9 10  4  0  0  0  0
 11 12  1  0  0  0  0
 12 13  1  0  0  0  0
 12 14  1  0  0  0  0
M  END
>  <Name_Molregno>
433584

>  <5-HT2A>
7.09

>  <5-HT2C>
7.49

$$$$
433612
  Marvin  02231216192D 0   1.00000     0.00000     0

 14 15  0  0  1  0  0  0  0  0999 V2000
    4.6625   -1.2299    0.0000 F   0  0  0  0  0  0  0  0  0
    3.9480   -0.8174    0.0000 C   0  0  0  0  0  0  0  0  0
    3.2335   -1.2299    0.0000 C   0  0  0  0  0  0  0  0  0
    2.5190   -0.8174    0.0000 C   0  0  0  0  0  0  0  0  0
    2.5190    0.0076    0.0000 C   0  0  0  0  0  0  0  0  0
    1.7344    0.2625    0.0000 N   0  0  0  0  0  0  0  0  0
    1.2495   -0.4049    0.0000 N   0  0  0  0  0  0  0  0  0
    1.7344   -1.0724    0.0000 C   0  0  0  0  0  0  0  0  0
    1.4795    1.0471    0.0000 C   0  0  0  0  0  0  0  0  0
    2.0315    1.6602    0.0000 C   0  0  0  0  0  0  0  0  0
    1.7766    2.4449    0.0000 N   0  0  0  0  0  0  0  0  0
    2.8385    1.4887    0.0000 C   0  0  0  0  0  0  0  0  0
    3.2335    0.4201    0.0000 C   0  0  0  0  0  0  0  0  0
    3.9480    0.0076    0.0000 C   0  0  0  0  0  0  0  0  0
  1  2  1  0  0  0  0
  2  3  4  0  0  0  0
  2 14  4  0  0  0  0
  3  4  4  0  0  0  0
  4  5  4  0  0  0  0
  4  8  4  0  0  0  0
  5  6  4  0  0  0  0
  5 13  4  0  0  0  0
  6  7  4  0  0  0  0
  6  9  1  0  0  0  0
  7  8  4  0  0  0  0
  9 10  1  0  0  0  0
 10 11  1  0  0  0  0
 10 12  1  0  0  0  0
 13 14  4  0  0  0  0
M  END
>  <Name_Molregno>
433612

>  <5-HT2A>
7.05

>  <5-HT2C>
7.37

$$$$
433936
  Marvin  02231216192D 0   1.00000     0.00000     0

 20 22  0  0  1  0  0  0  0  0999 V2000
    3.5874    0.5144    0.0000 O   0  0  0  0  0  0  0  0  0
    2.7804    0.6859    0.0000 C   0  0  0  0  0  0  0  0  0
    2.3679   -0.0286    0.0000 C   0  0  0  0  0  0  0  0  0
    2.9199   -0.6417    0.0000 C   0  0  0  0  0  0  0  0  0
    3.6736   -0.3061    0.0000 C   0  0  0  0  0  0  0  0  0
    4.3881   -0.7186    0.0000 C   0  0  0  0  0  0  0  0  0
    5.1025   -0.3061    0.0000 C   0  0  0  0  0  0  0  0  0
    1.5429   -0.0286    0.0000 C   0  0  0  0  0  0  0  0  0
    0.9909   -0.6417    0.0000 N   0  0  0  0  0  0  0  0  0
    0.2372   -0.3061    0.0000 N   0  0  0  0  0  0  0  0  0
    0.3234    0.5144    0.0000 C   0  0  0  0  0  0  0  0  0
   -0.2897    1.0664    0.0000 O   0  0  0  0  0  0  0  0  0
   -1.0743    0.8115    0.0000 C   0  0  0  0  0  0  0  0  0
    1.1304    0.6859    0.0000 C   0  0  0  0  0  0  0  0  0
    1.5429    1.4004    0.0000 C   0  0  0  0  0  0  0  0  0
    2.3679    1.4004    0.0000 C   0  0  0  0  0  0  0  0  0
    1.1624   -1.4486    0.0000 C   0  0  0  0  0  0  0  0  0
    1.9470   -1.7036    0.0000 C   0  0  0  0  0  0  0  0  0
    2.5601   -1.1515    0.0000 N   0  0  0  0  0  0  0  0  0
    2.1185   -2.5105    0.0000 C   0  0  0  0  0  0  0  0  0
  1  2  4  0  0  0  0
  1  5  4  0  0  0  0
  2  3  4  0  0  0  0
  2 16  4  0  0  0  0
  3  4  4  0  0  0  0
  3  8  4  0  0  0  0
  4  5  4  0  0  0  0
  5  6  1  0  0  0  0
  6  7  1  0  0  0  0
  8  9  4  0  0  0  0
  8 14  4  0  0  0  0
  9 10  4  0  0  0  0
  9 17  1  0  0  0  0
 10 11  4  0  0  0  0
 11 12  1  0  0  0  0
 11 14  4  0  0  0  0
 12 13  1  0  0  0  0
 14 15  4  0  0  0  0
 15 16  4  0  0  0  0
 17 18  1  0  0  0  0
 18 19  1  0  0  0  0
 18 20  1  0  0  0  0
M  END
>  <Name_Molregno>
433936

>  <5-HT2A>
7.42

>  <5-HT2C>
7.92

$$$$
433964
  Marvin  02231216192D 0   1.00000     0.00000     0

 19 21  0  0  1  0  0  0  0  0999 V2000
    3.2022    1.1106    0.0000 O   0  0  0  0  0  0  0  0  0
    2.3952    1.2821    0.0000 C   0  0  0  0  0  0  0  0  0
    1.9827    0.5677    0.0000 C   0  0  0  0  0  0  0  0  0
    2.5348   -0.0454    0.0000 C   0  0  0  0  0  0  0  0  0
    3.2884    0.2901    0.0000 C   0  0  0  0  0  0  0  0  0
    4.0029   -0.1224    0.0000 C   0  0  0  0  0  0  0  0  0
    4.7174    0.2901    0.0000 C   0  0  0  0  0  0  0  0  0
    4.0029   -0.9474    0.0000 C   0  0  0  0  0  0  0  0  0
    1.1577    0.5677    0.0000 C   0  0  0  0  0  0  0  0  0
    0.6057   -0.0454    0.0000 N   0  0  0  0  0  0  0  0  0
   -0.1480    0.2901    0.0000 N   0  0  0  0  0  0  0  0  0
   -0.0617    1.1106    0.0000 C   0  0  0  0  0  0  0  0  0
    0.7452    1.2821    0.0000 C   0  0  0  0  0  0  0  0  0
    1.1577    1.9966    0.0000 C   0  0  0  0  0  0  0  0  0
    1.9827    1.9966    0.0000 C   0  0  0  0  0  0  0  0  0
    0.7772   -0.8524    0.0000 C   0  0  0  0  0  0  0  0  0
    0.1641   -1.4044    0.0000 C   0  0  0  0  0  0  0  0  0
    0.3357   -2.2114    0.0000 N   0  0  0  0  0  0  0  0  0
   -0.6205   -1.1495    0.0000 C   0  0  0  0  0  0  0  0  0
  1  2  4  0  0  0  0
  1  5  4  0  0  0  0
  2  3  4  0  0  0  0
  2 15  4  0  0  0  0
  3  4  4  0  0  0  0
  3  9  4  0  0  0  0
  4  5  4  0  0  0  0
  5  6  1  0  0  0  0
  6  7  1  0  0  0  0
  6  8  1  0  0  0  0
  9 10  4  0  0  0  0
  9 13  4  0  0  0  0
 10 11  4  0  0  0  0
 10 16  1  0  0  0  0
 11 12  4  0  0  0  0
 12 13  4  0  0  0  0
 13 14  4  0  0  0  0
 14 15  4  0  0  0  0
 16 17  1  0  0  0  0
 17 18  1  0  0  0  0
 17 19  1  0  0  0  0
M  END
>  <Name_Molregno>
433964

>  <5-HT2A>
7.06

>  <5-HT2C>
7.7

$$$$
433965
  Marvin  02231216192D 0   1.00000     0.00000     0

 19 21  0  0  1  0  0  0  0  0999 V2000
    3.6139    0.7400    0.0000 O   0  0  0  0  0  0  0  0  0
    2.8069    0.9116    0.0000 C   0  0  0  0  0  0  0  0  0
    2.3944    0.1971    0.0000 C   0  0  0  0  0  0  0  0  0
    2.9464   -0.4160    0.0000 C   0  0  0  0  0  0  0  0  0
    3.7001   -0.0804    0.0000 C   0  0  0  0  0  0  0  0  0
    4.4146   -0.4929    0.0000 C   0  0  0  0  0  0  0  0  0
    5.1290   -0.0804    0.0000 C   0  0  0  0  0  0  0  0  0
    1.5694    0.1971    0.0000 C   0  0  0  0  0  0  0  0  0
    1.0174   -0.4160    0.0000 N   0  0  0  0  0  0  0  0  0
    0.2637   -0.0804    0.0000 N   0  0  0  0  0  0  0  0  0
    0.3499    0.7400    0.0000 C   0  0  0  0  0  0  0  0  0
    1.1569    0.9116    0.0000 C   0  0  0  0  0  0  0  0  0
    1.5694    1.6260    0.0000 C   0  0  0  0  0  0  0  0  0
    2.3944    1.6260    0.0000 C   0  0  0  0  0  0  0  0  0
   -0.2632    1.2921    0.0000 C   0  0  0  0  0  0  0  0  0
    1.1889   -1.2230    0.0000 C   0  0  0  0  0  0  0  0  0
    0.5758   -1.7750    0.0000 C   0  0  0  0  0  0  0  0  0
    0.7473   -2.5820    0.0000 N   0  0  0  0  0  0  0  0  0
   -0.2088   -1.5201    0.0000 C   0  0  0  0  0  0  0  0  0
  1  2  4  0  0  0  0
  1  5  4  0  0  0  0
  2  3  4  0  0  0  0
  2 14  4  0  0  0  0
  3  4  4  0  0  0  0
  3  8  4  0  0  0  0
  4  5  4  0  0  0  0
  5  6  1  0  0  0  0
  6  7  1  0  0  0  0
  8  9  4  0  0  0  0
  8 12  4  0  0  0  0
  9 10  4  0  0  0  0
  9 16  1  0  0  0  0
 10 11  4  0  0  0  0
 11 12  4  0  0  0  0
 11 15  1  0  0  0  0
 12 13  4  0  0  0  0
 13 14  4  0  0  0  0
 16 17  1  0  0  0  0
 17 18  1  0  0  0  0
 17 19  1  0  0  0  0
M  END
>  <Name_Molregno>
433965

>  <5-HT2A>
7.34

>  <5-HT2C>
8.3

$$$$
433966
  Marvin  02231216192D 0   1.00000     0.00000     0

 20 22  0  0  1  0  0  0  0  0999 V2000
    3.5874    0.5144    0.0000 O   0  0  0  0  0  0  0  0  0
    2.7804    0.6859    0.0000 C   0  0  0  0  0  0  0  0  0
    2.3679   -0.0286    0.0000 C   0  0  0  0  0  0  0  0  0
    2.9199   -0.6417    0.0000 C   0  0  0  0  0  0  0  0  0
    3.6736   -0.3061    0.0000 C   0  0  0  0  0  0  0  0  0
    4.3881   -0.7186    0.0000 C   0  0  0  0  0  0  0  0  0
    5.1025   -0.3061    0.0000 C   0  0  0  0  0  0  0  0  0
    1.5429   -0.0286    0.0000 C   0  0  0  0  0  0  0  0  0
    0.9909   -0.6417    0.0000 N   0  0  0  0  0  0  0  0  0
    0.2372   -0.3061    0.0000 N   0  0  0  0  0  0  0  0  0
    0.3234    0.5144    0.0000 C   0  0  0  0  0  0  0  0  0
    1.1304    0.6859    0.0000 C   0  0  0  0  0  0  0  0  0
    1.5429    1.4004    0.0000 C   0  0  0  0  0  0  0  0  0
    2.3679    1.4004    0.0000 C   0  0  0  0  0  0  0  0  0
   -0.2897    1.0664    0.0000 C   0  0  0  0  0  0  0  0  0
   -1.0743    0.8115    0.0000 C   0  0  0  0  0  0  0  0  0
    1.1624   -1.4486    0.0000 C   0  0  0  0  0  0  0  0  0
    1.9470   -1.7036    0.0000 C   0  0  0  0  0  0  0  0  0
    2.5601   -1.1515    0.0000 N   0  0  0  0  0  0  0  0  0
    2.1185   -2.5105    0.0000 C   0  0  0  0  0  0  0  0  0
  1  2  4  0  0  0  0
  1  5  4  0  0  0  0
  2  3  4  0  0  0  0
  2 14  4  0  0  0  0
  3  4  4  0  0  0  0
  3  8  4  0  0  0  0
  4  5  4  0  0  0  0
  5  6  1  0  0  0  0
  6  7  1  0  0  0  0
  8  9  4  0  0  0  0
  8 12  4  0  0  0  0
  9 10  4  0  0  0  0
  9 17  1  0  0  0  0
 10 11  4  0  0  0  0
 11 12  4  0  0  0  0
 11 15  1  0  0  0  0
 12 13  4  0  0  0  0
 13 14  4  0  0  0  0
 15 16  1  0  0  0  0
 17 18  1  0  0  0  0
 18 19  1  0  0  0  0
 18 20  1  0  0  0  0
M  END
>  <Name_Molregno>
433966

>  <5-HT2A>
7.29

>  <5-HT2C>
8.57

$$$$
434769
  Marvin  02231216192D 0   1.00000     0.00000     0

 19 21  0  0  0  0  0  0  0  0999 V2000
    2.6557    3.6132    0.0000 Cl  0  0  0  0  0  0  0  0  0
    2.6557    2.7882    0.0000 C   0  0  0  0  0  0  0  0  0
    3.3702    2.3757    0.0000 C   0  0  0  0  0  0  0  0  0
    3.3702    1.5507    0.0000 C   0  0  0  0  0  0  0  0  0
    2.6557    1.1382    0.0000 C   0  0  0  0  0  0  0  0  0
    1.9413    1.5507    0.0000 C   0  0  0  0  0  0  0  0  0
    1.9413    2.3757    0.0000 C   0  0  0  0  0  0  0  0  0
    2.6557    0.3132    0.0000 C   0  0  0  0  0  0  0  0  0
    1.9413   -0.0993    0.0000 N   0  0  0  0  0  0  0  0  0
    1.9413   -0.9243    0.0000 C   0  0  0  0  0  0  0  0  0
    2.6557   -1.3368    0.0000 N   0  0  0  0  0  0  0  0  0
    3.3702   -0.9243    0.0000 C   0  0  0  0  0  0  0  0  0
    3.3702   -0.0993    0.0000 C   0  0  0  0  0  0  0  0  0
    4.0152    0.4151    0.0000 C   0  0  0  0  0  0  0  0  0
    4.8195    0.2315    0.0000 C   0  0  0  0  0  0  0  0  0
    5.1775   -0.5118    0.0000 N   0  0  0  0  0  0  0  0  0
    4.8195   -1.2551    0.0000 C   0  0  0  0  0  0  0  0  0
    4.0152   -1.4387    0.0000 C   0  0  0  0  0  0  0  0  0
    1.2268   -1.3368    0.0000 C   0  0  0  0  0  0  0  0  0
  1  2  1  0  0  0  0
  2  3  4  0  0  0  0
  2  7  4  0  0  0  0
  3  4  4  0  0  0  0
  4  5  4  0  0  0  0
  5  6  4  0  0  0  0
  5  8  1  0  0  0  0
  6  7  4  0  0  0  0
  8  9  4  0  0  0  0
  8 13  4  0  0  0  0
  9 10  4  0  0  0  0
 10 11  4  0  0  0  0
 10 19  1  0  0  0  0
 11 12  4  0  0  0  0
 12 13  4  0  0  0  0
 12 18  1  0  0  0  0
 13 14  1  0  0  0  0
 14 15  1  0  0  0  0
 15 16  1  0  0  0  0
 16 17  1  0  0  0  0
 17 18  1  0  0  0  0
M  END
>  <Name_Molregno>
434769

>  <5-HT2A>
5.92

>  <5-HT2C>
5.3

$$$$
434770
  Marvin  02231216192D 0   1.00000     0.00000     0

 21 23  0  0  0  0  0  0  0  0999 V2000
    3.0562    3.5431    0.0000 F   0  0  0  0  0  0  0  0  0
    3.0562    2.7181    0.0000 C   0  0  0  0  0  0  0  0  0
    3.7707    2.3056    0.0000 C   0  0  0  0  0  0  0  0  0
    3.7707    1.4806    0.0000 C   0  0  0  0  0  0  0  0  0
    3.0562    1.0681    0.0000 C   0  0  0  0  0  0  0  0  0
    2.3418    1.4806    0.0000 C   0  0  0  0  0  0  0  0  0
    2.3418    2.3056    0.0000 C   0  0  0  0  0  0  0  0  0
    3.0562    0.2431    0.0000 C   0  0  0  0  0  0  0  0  0
    2.3418   -0.1694    0.0000 N   0  0  0  0  0  0  0  0  0
    2.3418   -0.9944    0.0000 C   0  0  0  0  0  0  0  0  0
    3.0562   -1.4069    0.0000 N   0  0  0  0  0  0  0  0  0
    3.7707   -0.9944    0.0000 C   0  0  0  0  0  0  0  0  0
    3.7707   -0.1694    0.0000 C   0  0  0  0  0  0  0  0  0
    4.4157    0.3450    0.0000 C   0  0  0  0  0  0  0  0  0
    5.2200    0.1614    0.0000 C   0  0  0  0  0  0  0  0  0
    5.5780   -0.5819    0.0000 N   0  0  0  0  0  0  0  0  0
    5.2200   -1.3252    0.0000 C   0  0  0  0  0  0  0  0  0
    4.4157   -1.5088    0.0000 C   0  0  0  0  0  0  0  0  0
    1.6273   -1.4069    0.0000 C   0  0  0  0  0  0  0  0  0
    1.6273   -2.2319    0.0000 C   0  0  0  0  0  0  0  0  0
    0.9128   -0.9944    0.0000 C   0  0  0  0  0  0  0  0  0
  1  2  1  0  0  0  0
  2  3  4  0  0  0  0
  2  7  4  0  0  0  0
  3  4  4  0  0  0  0
  4  5  4  0  0  0  0
  5  6  4  0  0  0  0
  5  8  1  0  0  0  0
  6  7  4  0  0  0  0
  8  9  4  0  0  0  0
  8 13  4  0  0  0  0
  9 10  4  0  0  0  0
 10 11  4  0  0  0  0
 10 19  1  0  0  0  0
 11 12  4  0  0  0  0
 12 13  4  0  0  0  0
 12 18  1  0  0  0  0
 13 14  1  0  0  0  0
 14 15  1  0  0  0  0
 15 16  1  0  0  0  0
 16 17  1  0  0  0  0
 17 18  1  0  0  0  0
 19 20  1  0  0  0  0
 19 21  1  0  0  0  0
M  END
>  <Name_Molregno>
434770

>  <5-HT2A>
8.4

>  <5-HT2C>
7.1

$$$$
435121
  Marvin  02231216192D 0   1.00000     0.00000     0

 24 27  0  0  0  0  0  0  0  0999 V2000
    4.3611    3.4526    0.0000 F   0  0  0  0  0  0  0  0  0
    4.3611    2.6276    0.0000 C   0  0  0  0  0  0  0  0  0
    5.0755    2.2151    0.0000 C   0  0  0  0  0  0  0  0  0
    5.0755    1.3901    0.0000 C   0  0  0  0  0  0  0  0  0
    4.3611    0.9776    0.0000 C   0  0  0  0  0  0  0  0  0
    3.6466    1.3901    0.0000 C   0  0  0  0  0  0  0  0  0
    3.6466    2.2151    0.0000 C   0  0  0  0  0  0  0  0  0
    4.3611    0.1526    0.0000 C   0  0  0  0  0  0  0  0  0
    3.6466   -0.2599    0.0000 N   0  0  0  0  0  0  0  0  0
    3.6466   -1.0849    0.0000 C   0  0  0  0  0  0  0  0  0
    4.3611   -1.4974    0.0000 N   0  0  0  0  0  0  0  0  0
    5.0755   -1.0849    0.0000 C   0  0  0  0  0  0  0  0  0
    5.0755   -0.2599    0.0000 C   0  0  0  0  0  0  0  0  0
    5.7900    0.1526    0.0000 C   0  0  0  0  0  0  0  0  0
    6.5045   -0.2599    0.0000 C   0  0  0  0  0  0  0  0  0
    6.5045   -1.0849    0.0000 N   0  0  0  0  0  0  0  0  0
    5.7900   -1.4974    0.0000 C   0  0  0  0  0  0  0  0  0
    2.9321   -1.4974    0.0000 C   0  0  0  0  0  0  0  0  0
    2.2177   -1.0849    0.0000 C   0  0  0  0  0  0  0  0  0
    1.5032   -1.4974    0.0000 C   0  0  0  0  0  0  0  0  0
    0.7887   -1.0849    0.0000 C   0  0  0  0  0  0  0  0  0
    0.7887   -0.2599    0.0000 C   0  0  0  0  0  0  0  0  0
    1.5032    0.1526    0.0000 C   0  0  0  0  0  0  0  0  0
    2.2177   -0.2599    0.0000 C   0  0  0  0  0  0  0  0  0
  1  2  1  0  0  0  0
  2  3  4  0  0  0  0
  2  7  4  0  0  0  0
  3  4  4  0  0  0  0
  4  5  4  0  0  0  0
  5  6  4  0  0  0  0
  5  8  1  0  0  0  0
  6  7  4  0  0  0  0
  8  9  4  0  0  0  0
  8 13  4  0  0  0  0
  9 10  4  0  0  0  0
 10 11  4  0  0  0  0
 10 18  1  0  0  0  0
 11 12  4  0  0  0  0
 12 13  4  0  0  0  0
 12 17  1  0  0  0  0
 13 14  1  0  0  0  0
 14 15  1  0  0  0  0
 15 16  1  0  0  0  0
 16 17  1  0  0  0  0
 18 19  1  0  0  0  0
 19 20  4  0  0  0  0
 19 24  4  0  0  0  0
 20 21  4  0  0  0  0
 21 22  4  0  0  0  0
 22 23  4  0  0  0  0
 23 24  4  0  0  0  0
M  END
>  <Name_Molregno>
435121

>  <5-HT2A>
8.05

>  <5-HT2C>
7.12

$$$$
435122
  Marvin  02231216192D 0   1.00000     0.00000     0

 25 28  0  0  0  0  0  0  0  0999 V2000
    4.2498    3.4113    0.0000 F   0  0  0  0  0  0  0  0  0
    4.2498    2.5863    0.0000 C   0  0  0  0  0  0  0  0  0
    4.9643    2.1738    0.0000 C   0  0  0  0  0  0  0  0  0
    4.9643    1.3488    0.0000 C   0  0  0  0  0  0  0  0  0
    4.2498    0.9363    0.0000 C   0  0  0  0  0  0  0  0  0
    3.5354    1.3488    0.0000 C   0  0  0  0  0  0  0  0  0
    3.5354    2.1738    0.0000 C   0  0  0  0  0  0  0  0  0
    4.2498    0.1113    0.0000 C   0  0  0  0  0  0  0  0  0
    3.5354   -0.3012    0.0000 N   0  0  0  0  0  0  0  0  0
    3.5354   -1.1262    0.0000 C   0  0  0  0  0  0  0  0  0
    4.2498   -1.5387    0.0000 N   0  0  0  0  0  0  0  0  0
    4.9643   -1.1262    0.0000 C   0  0  0  0  0  0  0  0  0
    4.9643   -0.3012    0.0000 C   0  0  0  0  0  0  0  0  0
    5.6093    0.2132    0.0000 C   0  0  0  0  0  0  0  0  0
    6.4136    0.0296    0.0000 N   0  0  0  0  0  0  0  0  0
    6.7716   -0.7137    0.0000 C   0  0  0  0  0  0  0  0  0
    6.4136   -1.4570    0.0000 C   0  0  0  0  0  0  0  0  0
    5.6093   -1.6405    0.0000 C   0  0  0  0  0  0  0  0  0
    2.8209   -1.5387    0.0000 C   0  0  0  0  0  0  0  0  0
    2.1064   -1.1262    0.0000 C   0  0  0  0  0  0  0  0  0
    1.3920   -1.5387    0.0000 C   0  0  0  0  0  0  0  0  0
    0.6775   -1.1262    0.0000 C   0  0  0  0  0  0  0  0  0
    0.6775   -0.3012    0.0000 C   0  0  0  0  0  0  0  0  0
    1.3920    0.1113    0.0000 C   0  0  0  0  0  0  0  0  0
    2.1064   -0.3012    0.0000 C   0  0  0  0  0  0  0  0  0
  1  2  1  0  0  0  0
  2  3  4  0  0  0  0
  2  7  4  0  0  0  0
  3  4  4  0  0  0  0
  4  5  4  0  0  0  0
  5  6  4  0  0  0  0
  5  8  1  0  0  0  0
  6  7  4  0  0  0  0
  8  9  4  0  0  0  0
  8 13  4  0  0  0  0
  9 10  4  0  0  0  0
 10 11  4  0  0  0  0
 10 19  1  0  0  0  0
 11 12  4  0  0  0  0
 12 13  4  0  0  0  0
 12 18  1  0  0  0  0
 13 14  1  0  0  0  0
 14 15  1  0  0  0  0
 15 16  1  0  0  0  0
 16 17  1  0  0  0  0
 17 18  1  0  0  0  0
 19 20  1  0  0  0  0
 20 21  4  0  0  0  0
 20 25  4  0  0  0  0
 21 22  4  0  0  0  0
 22 23  4  0  0  0  0
 23 24  4  0  0  0  0
 24 25  4  0  0  0  0
M  END
>  <Name_Molregno>
435122

>  <5-HT2A>
6.89

>  <5-HT2C>
5.3

$$$$
435167
  Marvin  02231216192D 0   1.00000     0.00000     0

 25 28  0  0  0  0  0  0  0  0999 V2000
    4.2498    3.4113    0.0000 F   0  0  0  0  0  0  0  0  0
    4.2498    2.5863    0.0000 C   0  0  0  0  0  0  0  0  0
    4.9643    2.1738    0.0000 C   0  0  0  0  0  0  0  0  0
    4.9643    1.3488    0.0000 C   0  0  0  0  0  0  0  0  0
    4.2498    0.9363    0.0000 C   0  0  0  0  0  0  0  0  0
    3.5354    1.3488    0.0000 C   0  0  0  0  0  0  0  0  0
    3.5354    2.1738    0.0000 C   0  0  0  0  0  0  0  0  0
    4.2498    0.1113    0.0000 C   0  0  0  0  0  0  0  0  0
    3.5354   -0.3012    0.0000 N   0  0  0  0  0  0  0  0  0
    3.5354   -1.1262    0.0000 C   0  0  0  0  0  0  0  0  0
    4.2498   -1.5387    0.0000 N   0  0  0  0  0  0  0  0  0
    4.9643   -1.1262    0.0000 C   0  0  0  0  0  0  0  0  0
    4.9643   -0.3012    0.0000 C   0  0  0  0  0  0  0  0  0
    5.6093    0.2132    0.0000 C   0  0  0  0  0  0  0  0  0
    6.4136    0.0296    0.0000 C   0  0  0  0  0  0  0  0  0
    6.7716   -0.7137    0.0000 C   0  0  0  0  0  0  0  0  0
    6.4136   -1.4570    0.0000 N   0  0  0  0  0  0  0  0  0
    5.6093   -1.6405    0.0000 C   0  0  0  0  0  0  0  0  0
    2.8209   -1.5387    0.0000 C   0  0  0  0  0  0  0  0  0
    2.1064   -1.1262    0.0000 C   0  0  0  0  0  0  0  0  0
    1.3920   -1.5387    0.0000 C   0  0  0  0  0  0  0  0  0
    0.6775   -1.1262    0.0000 C   0  0  0  0  0  0  0  0  0
    0.6775   -0.3012    0.0000 C   0  0  0  0  0  0  0  0  0
    1.3920    0.1113    0.0000 C   0  0  0  0  0  0  0  0  0
    2.1064   -0.3012    0.0000 C   0  0  0  0  0  0  0  0  0
  1  2  1  0  0  0  0
  2  3  4  0  0  0  0
  2  7  4  0  0  0  0
  3  4  4  0  0  0  0
  4  5  4  0  0  0  0
  5  6  4  0  0  0  0
  5  8  1  0  0  0  0
  6  7  4  0  0  0  0
  8  9  4  0  0  0  0
  8 13  4  0  0  0  0
  9 10  4  0  0  0  0
 10 11  4  0  0  0  0
 10 19  1  0  0  0  0
 11 12  4  0  0  0  0
 12 13  4  0  0  0  0
 12 18  1  0  0  0  0
 13 14  1  0  0  0  0
 14 15  1  0  0  0  0
 15 16  1  0  0  0  0
 16 17  1  0  0  0  0
 17 18  1  0  0  0  0
 19 20  1  0  0  0  0
 20 21  4  0  0  0  0
 20 25  4  0  0  0  0
 21 22  4  0  0  0  0
 22 23  4  0  0  0  0
 23 24  4  0  0  0  0
 24 25  4  0  0  0  0
M  END
>  <Name_Molregno>
435167

>  <5-HT2A>
8.06

>  <5-HT2C>
6.82

$$$$
435170
  Marvin  02231216192D 0   1.00000     0.00000     0

 21 23  0  0  0  0  0  0  0  0999 V2000
    3.5116    3.2193    0.0000 F   0  0  0  0  0  0  0  0  0
    3.5116    2.3943    0.0000 C   0  0  0  0  0  0  0  0  0
    4.2261    1.9818    0.0000 C   0  0  0  0  0  0  0  0  0
    4.2261    1.1568    0.0000 C   0  0  0  0  0  0  0  0  0
    3.5116    0.7443    0.0000 C   0  0  0  0  0  0  0  0  0
    2.7971    1.1568    0.0000 C   0  0  0  0  0  0  0  0  0
    2.7971    1.9818    0.0000 C   0  0  0  0  0  0  0  0  0
    3.5116   -0.0807    0.0000 C   0  0  0  0  0  0  0  0  0
    2.7971   -0.4932    0.0000 N   0  0  0  0  0  0  0  0  0
    2.7971   -1.3182    0.0000 C   0  0  0  0  0  0  0  0  0
    3.5116   -1.7307    0.0000 N   0  0  0  0  0  0  0  0  0
    4.2261   -1.3182    0.0000 C   0  0  0  0  0  0  0  0  0
    4.2261   -0.4932    0.0000 C   0  0  0  0  0  0  0  0  0
    4.9405   -0.0807    0.0000 C   0  0  0  0  0  0  0  0  0
    5.6550   -0.4932    0.0000 N   0  0  0  0  0  0  0  0  0
    5.6550   -1.3182    0.0000 C   0  0  0  0  0  0  0  0  0
    4.9405   -1.7307    0.0000 C   0  0  0  0  0  0  0  0  0
    2.0826   -1.7307    0.0000 C   0  0  0  0  0  0  0  0  0
    1.3682   -1.3182    0.0000 C   0  0  0  0  0  0  0  0  0
    0.6537   -1.7307    0.0000 C   0  0  0  0  0  0  0  0  0
    1.3682   -0.4932    0.0000 C   0  0  0  0  0  0  0  0  0
  1  2  1  0  0  0  0
  2  3  4  0  0  0  0
  2  7  4  0  0  0  0
  3  4  4  0  0  0  0
  4  5  4  0  0  0  0
  5  6  4  0  0  0  0
  5  8  1  0  0  0  0
  6  7  4  0  0  0  0
  8  9  4  0  0  0  0
  8 13  4  0  0  0  0
  9 10  4  0  0  0  0
 10 11  4  0  0  0  0
 10 18  1  0  0  0  0
 11 12  4  0  0  0  0
 12 13  4  0  0  0  0
 12 17  1  0  0  0  0
 13 14  1  0  0  0  0
 14 15  1  0  0  0  0
 15 16  1  0  0  0  0
 16 17  1  0  0  0  0
 18 19  1  0  0  0  0
 19 20  1  0  0  0  0
 19 21  1  0  0  0  0
M  END
>  <Name_Molregno>
435170

>  <5-HT2A>
7.54

>  <5-HT2C>
6

$$$$
435171
  Marvin  02231216192D 0   1.00000     0.00000     0

 23 26  0  0  0  0  0  0  0  0999 V2000
    3.4168    2.0504    0.0000 F   0  0  0  0  0  0  0  0  0
    3.4168    1.2254    0.0000 C   0  0  0  0  0  0  0  0  0
    4.1312    0.8129    0.0000 C   0  0  0  0  0  0  0  0  0
    4.1312   -0.0121    0.0000 C   0  0  0  0  0  0  0  0  0
    3.4168   -0.4246    0.0000 C   0  0  0  0  0  0  0  0  0
    2.7023   -0.0121    0.0000 C   0  0  0  0  0  0  0  0  0
    2.7023    0.8129    0.0000 C   0  0  0  0  0  0  0  0  0
    3.4168   -1.2496    0.0000 C   0  0  0  0  0  0  0  0  0
    2.7023   -1.6621    0.0000 N   0  0  0  0  0  0  0  0  0
    2.7023   -2.4871    0.0000 C   0  0  0  0  0  0  0  0  0
    3.4168   -2.8996    0.0000 N   0  0  0  0  0  0  0  0  0
    4.1312   -2.4871    0.0000 C   0  0  0  0  0  0  0  0  0
    4.1312   -1.6621    0.0000 C   0  0  0  0  0  0  0  0  0
    4.8457   -1.2496    0.0000 C   0  0  0  0  0  0  0  0  0
    5.5602   -1.6621    0.0000 N   0  0  0  0  0  0  0  0  0
    5.5602   -2.4871    0.0000 C   0  0  0  0  0  0  0  0  0
    4.8457   -2.8996    0.0000 C   0  0  0  0  0  0  0  0  0
    1.9878   -2.8996    0.0000 C   0  0  0  0  0  0  0  0  0
    1.9878   -3.7246    0.0000 C   0  0  0  0  0  0  0  0  0
    1.2734   -4.1371    0.0000 C   0  0  0  0  0  0  0  0  0
    0.5589   -3.7246    0.0000 C   0  0  0  0  0  0  0  0  0
    0.5589   -2.8996    0.0000 C   0  0  0  0  0  0  0  0  0
    1.2734   -2.4871    0.0000 C   0  0  0  0  0  0  0  0  0
  1  2  1  0  0  0  0
  2  3  4  0  0  0  0
  2  7  4  0  0  0  0
  3  4  4  0  0  0  0
  4  5  4  0  0  0  0
  5  6  4  0  0  0  0
  5  8  1  0  0  0  0
  6  7  4  0  0  0  0
  8  9  4  0  0  0  0
  8 13  4  0  0  0  0
  9 10  4  0  0  0  0
 10 11  4  0  0  0  0
 10 18  1  0  0  0  0
 11 12  4  0  0  0  0
 12 13  4  0  0  0  0
 12 17  1  0  0  0  0
 13 14  1  0  0  0  0
 14 15  1  0  0  0  0
 15 16  1  0  0  0  0
 16 17  1  0  0  0  0
 18 19  4  0  0  0  0
 18 23  4  0  0  0  0
 19 20  4  0  0  0  0
 20 21  4  0  0  0  0
 21 22  4  0  0  0  0
 22 23  4  0  0  0  0
M  END
>  <Name_Molregno>
435171

>  <5-HT2A>
7.3

>  <5-HT2C>
5.4

$$$$
435207
  Marvin  02231216192D 0   1.00000     0.00000     0

 20 23  0  0  0  0  0  0  0  0999 V2000
    3.1682    3.2654    0.0000 F   0  0  0  0  0  0  0  0  0
    3.1682    2.4404    0.0000 C   0  0  0  0  0  0  0  0  0
    3.8827    2.0279    0.0000 C   0  0  0  0  0  0  0  0  0
    3.8827    1.2029    0.0000 C   0  0  0  0  0  0  0  0  0
    3.1682    0.7904    0.0000 C   0  0  0  0  0  0  0  0  0
    2.4538    1.2029    0.0000 C   0  0  0  0  0  0  0  0  0
    2.4538    2.0279    0.0000 C   0  0  0  0  0  0  0  0  0
    3.1682   -0.0346    0.0000 C   0  0  0  0  0  0  0  0  0
    2.4538   -0.4471    0.0000 N   0  0  0  0  0  0  0  0  0
    2.4538   -1.2721    0.0000 C   0  0  0  0  0  0  0  0  0
    3.1682   -1.6846    0.0000 N   0  0  0  0  0  0  0  0  0
    3.8827   -1.2721    0.0000 C   0  0  0  0  0  0  0  0  0
    3.8827   -0.4471    0.0000 C   0  0  0  0  0  0  0  0  0
    4.5972   -0.0346    0.0000 C   0  0  0  0  0  0  0  0  0
    5.3117   -0.4471    0.0000 N   0  0  0  0  0  0  0  0  0
    5.3117   -1.2721    0.0000 C   0  0  0  0  0  0  0  0  0
    4.5972   -1.6846    0.0000 C   0  0  0  0  0  0  0  0  0
    1.7393   -1.6846    0.0000 C   0  0  0  0  0  0  0  0  0
    1.3268   -2.3991    0.0000 C   0  0  0  0  0  0  0  0  0
    0.9143   -1.6846    0.0000 C   0  0  0  0  0  0  0  0  0
  1  2  1  0  0  0  0
  2  3  4  0  0  0  0
  2  7  4  0  0  0  0
  3  4  4  0  0  0  0
  4  5  4  0  0  0  0
  5  6  4  0  0  0  0
  5  8  1  0  0  0  0
  6  7  4  0  0  0  0
  8  9  4  0  0  0  0
  8 13  4  0  0  0  0
  9 10  4  0  0  0  0
 10 11  4  0  0  0  0
 10 18  1  0  0  0  0
 11 12  4  0  0  0  0
 12 13  4  0  0  0  0
 12 17  1  0  0  0  0
 13 14  1  0  0  0  0
 14 15  1  0  0  0  0
 15 16  1  0  0  0  0
 16 17  1  0  0  0  0
 18 19  1  0  0  0  0
 18 20  1  0  0  0  0
 19 20  1  0  0  0  0
M  END
>  <Name_Molregno>
435207

>  <5-HT2A>
7.4

>  <5-HT2C>
5.3

$$$$
435208
  Marvin  02231216192D 0   1.00000     0.00000     0

 21 23  0  0  1  0  0  0  0  0999 V2000
    3.4013    3.3733    0.0000 F   0  0  0  0  0  0  0  0  0
    3.4013    2.5483    0.0000 C   0  0  0  0  0  0  0  0  0
    4.1158    2.1358    0.0000 C   0  0  0  0  0  0  0  0  0
    4.1158    1.3108    0.0000 C   0  0  0  0  0  0  0  0  0
    3.4013    0.8983    0.0000 C   0  0  0  0  0  0  0  0  0
    2.6868    1.3108    0.0000 C   0  0  0  0  0  0  0  0  0
    2.6868    2.1358    0.0000 C   0  0  0  0  0  0  0  0  0
    3.4013    0.0733    0.0000 C   0  0  0  0  0  0  0  0  0
    2.6868   -0.3392    0.0000 N   0  0  0  0  0  0  0  0  0
    2.6868   -1.1642    0.0000 C   0  0  0  0  0  0  0  0  0
    3.4013   -1.5767    0.0000 N   0  0  0  0  0  0  0  0  0
    4.1158   -1.1642    0.0000 C   0  0  0  0  0  0  0  0  0
    4.1158   -0.3392    0.0000 C   0  0  0  0  0  0  0  0  0
    4.8302    0.0733    0.0000 C   0  0  0  0  0  0  0  0  0
    5.5447   -0.3392    0.0000 N   0  0  0  0  0  0  0  0  0
    5.5447   -1.1642    0.0000 C   0  0  0  0  0  0  0  0  0
    4.8302   -1.5767    0.0000 C   0  0  0  0  0  0  0  0  0
    1.9724   -1.5767    0.0000 C   0  0  0  0  0  0  0  0  0
    1.2579   -1.1642    0.0000 C   0  0  0  0  0  0  0  0  0
    0.5434   -1.5767    0.0000 C   0  0  0  0  0  0  0  0  0
    1.9724   -2.4017    0.0000 C   0  0  0  0  0  0  0  0  0
  1  2  1  0  0  0  0
  2  3  4  0  0  0  0
  2  7  4  0  0  0  0
  3  4  4  0  0  0  0
  4  5  4  0  0  0  0
  5  6  4  0  0  0  0
  5  8  1  0  0  0  0
  6  7  4  0  0  0  0
  8  9  4  0  0  0  0
  8 13  4  0  0  0  0
  9 10  4  0  0  0  0
 10 11  4  0  0  0  0
 10 18  1  0  0  0  0
 11 12  4  0  0  0  0
 12 13  4  0  0  0  0
 12 17  1  0  0  0  0
 13 14  1  0  0  0  0
 14 15  1  0  0  0  0
 15 16  1  0  0  0  0
 16 17  1  0  0  0  0
 18 19  1  0  0  0  0
 18 21  1  0  0  0  0
 19 20  1  0  0  0  0
M  END
>  <Name_Molregno>
435208

>  <5-HT2A>
7.96

>  <5-HT2C>
5.99

$$$$
435209
  Marvin  02231216192D 0   1.00000     0.00000     0

 25 28  0  0  0  0  0  0  0  0999 V2000
    4.6799    3.5048    0.0000 F   0  0  0  0  0  0  0  0  0
    4.6799    2.6798    0.0000 C   0  0  0  0  0  0  0  0  0
    5.3944    2.2673    0.0000 C   0  0  0  0  0  0  0  0  0
    5.3944    1.4423    0.0000 C   0  0  0  0  0  0  0  0  0
    4.6799    1.0298    0.0000 C   0  0  0  0  0  0  0  0  0
    3.9654    1.4423    0.0000 C   0  0  0  0  0  0  0  0  0
    3.9654    2.2673    0.0000 C   0  0  0  0  0  0  0  0  0
    4.6799    0.2048    0.0000 C   0  0  0  0  0  0  0  0  0
    3.9654   -0.2077    0.0000 N   0  0  0  0  0  0  0  0  0
    3.9654   -1.0327    0.0000 C   0  0  0  0  0  0  0  0  0
    4.6799   -1.4452    0.0000 N   0  0  0  0  0  0  0  0  0
    5.3944   -1.0327    0.0000 C   0  0  0  0  0  0  0  0  0
    5.3944   -0.2077    0.0000 C   0  0  0  0  0  0  0  0  0
    6.1088    0.2048    0.0000 C   0  0  0  0  0  0  0  0  0
    6.8233   -0.2077    0.0000 N   0  0  0  0  0  0  0  0  0
    6.8233   -1.0327    0.0000 C   0  0  0  0  0  0  0  0  0
    6.1088   -1.4452    0.0000 C   0  0  0  0  0  0  0  0  0
    3.2509   -1.4452    0.0000 C   0  0  0  0  0  0  0  0  0
    2.5365   -1.0327    0.0000 C   0  0  0  0  0  0  0  0  0
    1.8220   -1.4452    0.0000 C   0  0  0  0  0  0  0  0  0
    1.1075   -1.0327    0.0000 C   0  0  0  0  0  0  0  0  0
    1.1075   -0.2077    0.0000 C   0  0  0  0  0  0  0  0  0
    0.3931    0.2048    0.0000 F   0  0  0  0  0  0  0  0  0
    1.8220    0.2048    0.0000 C   0  0  0  0  0  0  0  0  0
    2.5365   -0.2077    0.0000 C   0  0  0  0  0  0  0  0  0
  1  2  1  0  0  0  0
  2  3  4  0  0  0  0
  2  7  4  0  0  0  0
  3  4  4  0  0  0  0
  4  5  4  0  0  0  0
  5  6  4  0  0  0  0
  5  8  1  0  0  0  0
  6  7  4  0  0  0  0
  8  9  4  0  0  0  0
  8 13  4  0  0  0  0
  9 10  4  0  0  0  0
 10 11  4  0  0  0  0
 10 18  1  0  0  0  0
 11 12  4  0  0  0  0
 12 13  4  0  0  0  0
 12 17  1  0  0  0  0
 13 14  1  0  0  0  0
 14 15  1  0  0  0  0
 15 16  1  0  0  0  0
 16 17  1  0  0  0  0
 18 19  1  0  0  0  0
 19 20  4  0  0  0  0
 19 25  4  0  0  0  0
 20 21  4  0  0  0  0
 21 22  4  0  0  0  0
 22 23  1  0  0  0  0
 22 24  4  0  0  0  0
 24 25  4  0  0  0  0
M  END
>  <Name_Molregno>
435209

>  <5-HT2A>
7.89

>  <5-HT2C>
6

$$$$
435210
  Marvin  02231216192D 0   1.00000     0.00000     0

 21 24  0  0  0  0  0  0  0  0999 V2000
    3.3728    3.4859    0.0000 F   0  0  0  0  0  0  0  0  0
    3.3728    2.6609    0.0000 C   0  0  0  0  0  0  0  0  0
    4.0872    2.2484    0.0000 C   0  0  0  0  0  0  0  0  0
    4.0872    1.4234    0.0000 C   0  0  0  0  0  0  0  0  0
    3.3728    1.0109    0.0000 C   0  0  0  0  0  0  0  0  0
    2.6583    1.4234    0.0000 C   0  0  0  0  0  0  0  0  0
    2.6583    2.2484    0.0000 C   0  0  0  0  0  0  0  0  0
    3.3728    0.1859    0.0000 C   0  0  0  0  0  0  0  0  0
    2.6583   -0.2266    0.0000 N   0  0  0  0  0  0  0  0  0
    2.6583   -1.0516    0.0000 C   0  0  0  0  0  0  0  0  0
    3.3728   -1.4641    0.0000 N   0  0  0  0  0  0  0  0  0
    4.0872   -1.0516    0.0000 C   0  0  0  0  0  0  0  0  0
    4.0872   -0.2266    0.0000 C   0  0  0  0  0  0  0  0  0
    4.8017    0.1859    0.0000 C   0  0  0  0  0  0  0  0  0
    5.5162   -0.2266    0.0000 N   0  0  0  0  0  0  0  0  0
    5.5162   -1.0516    0.0000 C   0  0  0  0  0  0  0  0  0
    4.8017   -1.4641    0.0000 C   0  0  0  0  0  0  0  0  0
    1.9438   -1.4641    0.0000 C   0  0  0  0  0  0  0  0  0
    1.7303   -2.2609    0.0000 C   0  0  0  0  0  0  0  0  0
    0.9334   -2.0474    0.0000 C   0  0  0  0  0  0  0  0  0
    1.1469   -1.2505    0.0000 C   0  0  0  0  0  0  0  0  0
  1  2  1  0  0  0  0
  2  3  4  0  0  0  0
  2  7  4  0  0  0  0
  3  4  4  0  0  0  0
  4  5  4  0  0  0  0
  5  6  4  0  0  0  0
  5  8  1  0  0  0  0
  6  7  4  0  0  0  0
  8  9  4  0  0  0  0
  8 13  4  0  0  0  0
  9 10  4  0  0  0  0
 10 11  4  0  0  0  0
 10 18  1  0  0  0  0
 11 12  4  0  0  0  0
 12 13  4  0  0  0  0
 12 17  1  0  0  0  0
 13 14  1  0  0  0  0
 14 15  1  0  0  0  0
 15 16  1  0  0  0  0
 16 17  1  0  0  0  0
 18 19  1  0  0  0  0
 18 21  1  0  0  0  0
 19 20  1  0  0  0  0
 20 21  1  0  0  0  0
M  END
>  <Name_Molregno>
435210

>  <5-HT2A>
7.96

>  <5-HT2C>
6.39

$$$$
435212
  Marvin  02231216192D 0   1.00000     0.00000     0

 21 23  0  0  0  0  0  0  0  0999 V2000
    3.2950    3.4268    0.0000 F   0  0  0  0  0  0  0  0  0
    3.2950    2.6018    0.0000 C   0  0  0  0  0  0  0  0  0
    4.0094    2.1893    0.0000 C   0  0  0  0  0  0  0  0  0
    4.0094    1.3643    0.0000 C   0  0  0  0  0  0  0  0  0
    3.2950    0.9518    0.0000 C   0  0  0  0  0  0  0  0  0
    2.5805    1.3643    0.0000 C   0  0  0  0  0  0  0  0  0
    2.5805    2.1893    0.0000 C   0  0  0  0  0  0  0  0  0
    3.2950    0.1268    0.0000 C   0  0  0  0  0  0  0  0  0
    2.5805   -0.2857    0.0000 N   0  0  0  0  0  0  0  0  0
    2.5805   -1.1107    0.0000 C   0  0  0  0  0  0  0  0  0
    3.2950   -1.5232    0.0000 N   0  0  0  0  0  0  0  0  0
    4.0094   -1.1107    0.0000 C   0  0  0  0  0  0  0  0  0
    4.0094   -0.2857    0.0000 C   0  0  0  0  0  0  0  0  0
    4.7239    0.1268    0.0000 C   0  0  0  0  0  0  0  0  0
    5.4384   -0.2857    0.0000 N   0  0  0  0  0  0  0  0  0
    5.4384   -1.1107    0.0000 C   0  0  0  0  0  0  0  0  0
    4.7239   -1.5232    0.0000 C   0  0  0  0  0  0  0  0  0
    1.8660   -1.5232    0.0000 C   0  0  0  0  0  0  0  0  0
    1.1515   -1.9357    0.0000 C   0  0  0  0  0  0  0  0  0
    2.2785   -2.2377    0.0000 C   0  0  0  0  0  0  0  0  0
    1.4535   -0.8087    0.0000 C   0  0  0  0  0  0  0  0  0
  1  2  1  0  0  0  0
  2  3  4  0  0  0  0
  2  7  4  0  0  0  0
  3  4  4  0  0  0  0
  4  5  4  0  0  0  0
  5  6  4  0  0  0  0
  5  8  1  0  0  0  0
  6  7  4  0  0  0  0
  8  9  4  0  0  0  0
  8 13  4  0  0  0  0
  9 10  4  0  0  0  0
 10 11  4  0  0  0  0
 10 18  1  0  0  0  0
 11 12  4  0  0  0  0
 12 13  4  0  0  0  0
 12 17  1  0  0  0  0
 13 14  1  0  0  0  0
 14 15  1  0  0  0  0
 15 16  1  0  0  0  0
 16 17  1  0  0  0  0
 18 19  1  0  0  0  0
 18 20  1  0  0  0  0
 18 21  1  0  0  0  0
M  END
>  <Name_Molregno>
435212

>  <5-HT2A>
8.3

>  <5-HT2C>
7

$$$$
435250
  Marvin  02231216192D 0   1.00000     0.00000     0

 22 25  0  0  0  0  0  0  0  0999 V2000
    3.5770    3.6431    0.0000 F   0  0  0  0  0  0  0  0  0
    3.5770    2.8181    0.0000 C   0  0  0  0  0  0  0  0  0
    4.2915    2.4056    0.0000 C   0  0  0  0  0  0  0  0  0
    4.2915    1.5806    0.0000 C   0  0  0  0  0  0  0  0  0
    3.5770    1.1681    0.0000 C   0  0  0  0  0  0  0  0  0
    2.8625    1.5806    0.0000 C   0  0  0  0  0  0  0  0  0
    2.8625    2.4056    0.0000 C   0  0  0  0  0  0  0  0  0
    3.5770    0.3431    0.0000 C   0  0  0  0  0  0  0  0  0
    2.8625   -0.0694    0.0000 N   0  0  0  0  0  0  0  0  0
    2.8625   -0.8944    0.0000 C   0  0  0  0  0  0  0  0  0
    3.5770   -1.3069    0.0000 N   0  0  0  0  0  0  0  0  0
    4.2915   -0.8944    0.0000 C   0  0  0  0  0  0  0  0  0
    4.2915   -0.0694    0.0000 C   0  0  0  0  0  0  0  0  0
    5.0059    0.3431    0.0000 C   0  0  0  0  0  0  0  0  0
    5.7204   -0.0694    0.0000 N   0  0  0  0  0  0  0  0  0
    5.7204   -0.8944    0.0000 C   0  0  0  0  0  0  0  0  0
    5.0059   -1.3069    0.0000 C   0  0  0  0  0  0  0  0  0
    2.1481   -1.3069    0.0000 C   0  0  0  0  0  0  0  0  0
    2.0618   -2.1274    0.0000 C   0  0  0  0  0  0  0  0  0
    1.2549   -2.2989    0.0000 C   0  0  0  0  0  0  0  0  0
    0.8424   -1.5845    0.0000 C   0  0  0  0  0  0  0  0  0
    1.3944   -0.9714    0.0000 C   0  0  0  0  0  0  0  0  0
  1  2  1  0  0  0  0
  2  3  4  0  0  0  0
  2  7  4  0  0  0  0
  3  4  4  0  0  0  0
  4  5  4  0  0  0  0
  5  6  4  0  0  0  0
  5  8  1  0  0  0  0
  6  7  4  0  0  0  0
  8  9  4  0  0  0  0
  8 13  4  0  0  0  0
  9 10  4  0  0  0  0
 10 11  4  0  0  0  0
 10 18  1  0  0  0  0
 11 12  4  0  0  0  0
 12 13  4  0  0  0  0
 12 17  1  0  0  0  0
 13 14  1  0  0  0  0
 14 15  1  0  0  0  0
 15 16  1  0  0  0  0
 16 17  1  0  0  0  0
 18 19  1  0  0  0  0
 18 22  1  0  0  0  0
 19 20  1  0  0  0  0
 20 21  1  0  0  0  0
 21 22  1  0  0  0  0
M  END
>  <Name_Molregno>
435250

>  <5-HT2A>
8.66

>  <5-HT2C>
6.96

$$$$
435252
  Marvin  02231216192D 0   1.00000     0.00000     0

 28 31  0  0  0  0  0  0  0  0999 V2000
   -3.2178    3.8938    0.0000 F   0  0  0  0  0  0  0  0  0
   -3.2178    3.0688    0.0000 C   0  0  0  0  0  0  0  0  0
   -4.0428    3.0688    0.0000 F   0  0  0  0  0  0  0  0  0
   -2.3928    3.0688    0.0000 F   0  0  0  0  0  0  0  0  0
   -3.2178    2.2438    0.0000 C   0  0  0  0  0  0  0  0  0
   -2.5033    1.8313    0.0000 C   0  0  0  0  0  0  0  0  0
   -2.5033    1.0063    0.0000 C   0  0  0  0  0  0  0  0  0
   -3.2178    0.5938    0.0000 C   0  0  0  0  0  0  0  0  0
   -3.9322    1.0063    0.0000 C   0  0  0  0  0  0  0  0  0
   -3.9322    1.8313    0.0000 C   0  0  0  0  0  0  0  0  0
   -3.2178   -0.2312    0.0000 C   0  0  0  0  0  0  0  0  0
   -3.9322   -0.6437    0.0000 N   0  0  0  0  0  0  0  0  0
   -3.9322   -1.4687    0.0000 C   0  0  0  0  0  0  0  0  0
   -3.2178   -1.8812    0.0000 N   0  0  0  0  0  0  0  0  0
   -2.5033   -1.4687    0.0000 C   0  0  0  0  0  0  0  0  0
   -2.5033   -0.6437    0.0000 C   0  0  0  0  0  0  0  0  0
   -1.8583   -0.1294    0.0000 C   0  0  0  0  0  0  0  0  0
   -1.0540   -0.3129    0.0000 C   0  0  0  0  0  0  0  0  0
   -0.6960   -1.0562    0.0000 N   0  0  0  0  0  0  0  0  0
   -1.0540   -1.7995    0.0000 C   0  0  0  0  0  0  0  0  0
   -1.8583   -1.9831    0.0000 C   0  0  0  0  0  0  0  0  0
   -4.6467   -1.8812    0.0000 C   0  0  0  0  0  0  0  0  0
   -5.3612   -1.4687    0.0000 C   0  0  0  0  0  0  0  0  0
   -6.0756   -1.8812    0.0000 C   0  0  0  0  0  0  0  0  0
   -6.7901   -1.4687    0.0000 C   0  0  0  0  0  0  0  0  0
   -6.7901   -0.6437    0.0000 C   0  0  0  0  0  0  0  0  0
   -6.0756   -0.2312    0.0000 C   0  0  0  0  0  0  0  0  0
   -5.3612   -0.6437    0.0000 C   0  0  0  0  0  0  0  0  0
  1  2  1  0  0  0  0
  2  3  1  0  0  0  0
  2  4  1  0  0  0  0
  2  5  1  0  0  0  0
  5  6  4  0  0  0  0
  5 10  4  0  0  0  0
  6  7  4  0  0  0  0
  7  8  4  0  0  0  0
  8  9  4  0  0  0  0
  8 11  1  0  0  0  0
  9 10  4  0  0  0  0
 11 12  4  0  0  0  0
 11 16  4  0  0  0  0
 12 13  4  0  0  0  0
 13 14  4  0  0  0  0
 13 22  1  0  0  0  0
 14 15  4  0  0  0  0
 15 16  4  0  0  0  0
 15 21  1  0  0  0  0
 16 17  1  0  0  0  0
 17 18  1  0  0  0  0
 18 19  1  0  0  0  0
 19 20  1  0  0  0  0
 20 21  1  0  0  0  0
 22 23  1  0  0  0  0
 23 24  4  0  0  0  0
 23 28  4  0  0  0  0
 24 25  4  0  0  0  0
 25 26  4  0  0  0  0
 26 27  4  0  0  0  0
 27 28  4  0  0  0  0
M  END
>  <Name_Molregno>
435252

>  <5-HT2A>
9.1

>  <5-HT2C>
7.42

$$$$
435253
  Marvin  02231216192D 0   1.00000     0.00000     0

 24 27  0  0  0  0  0  0  0  0999 V2000
    4.3611    3.4526    0.0000 F   0  0  0  0  0  0  0  0  0
    4.3611    2.6276    0.0000 C   0  0  0  0  0  0  0  0  0
    5.0755    2.2151    0.0000 C   0  0  0  0  0  0  0  0  0
    5.0755    1.3901    0.0000 C   0  0  0  0  0  0  0  0  0
    4.3611    0.9776    0.0000 C   0  0  0  0  0  0  0  0  0
    3.6466    1.3901    0.0000 C   0  0  0  0  0  0  0  0  0
    3.6466    2.2151    0.0000 C   0  0  0  0  0  0  0  0  0
    4.3611    0.1526    0.0000 C   0  0  0  0  0  0  0  0  0
    3.6466   -0.2599    0.0000 N   0  0  0  0  0  0  0  0  0
    3.6466   -1.0849    0.0000 C   0  0  0  0  0  0  0  0  0
    4.3611   -1.4974    0.0000 N   0  0  0  0  0  0  0  0  0
    5.0755   -1.0849    0.0000 C   0  0  0  0  0  0  0  0  0
    5.0755   -0.2599    0.0000 C   0  0  0  0  0  0  0  0  0
    5.7900    0.1526    0.0000 C   0  0  0  0  0  0  0  0  0
    6.5045   -0.2599    0.0000 N   0  0  0  0  0  0  0  0  0
    6.5045   -1.0849    0.0000 C   0  0  0  0  0  0  0  0  0
    5.7900   -1.4974    0.0000 C   0  0  0  0  0  0  0  0  0
    2.9321   -1.4974    0.0000 C   0  0  0  0  0  0  0  0  0
    2.2177   -1.0849    0.0000 C   0  0  0  0  0  0  0  0  0
    1.5032   -1.4974    0.0000 C   0  0  0  0  0  0  0  0  0
    0.7887   -1.0849    0.0000 C   0  0  0  0  0  0  0  0  0
    0.7887   -0.2599    0.0000 C   0  0  0  0  0  0  0  0  0
    1.5032    0.1526    0.0000 C   0  0  0  0  0  0  0  0  0
    2.2177   -0.2599    0.0000 C   0  0  0  0  0  0  0  0  0
  1  2  1  0  0  0  0
  2  3  4  0  0  0  0
  2  7  4  0  0  0  0
  3  4  4  0  0  0  0
  4  5  4  0  0  0  0
  5  6  4  0  0  0  0
  5  8  1  0  0  0  0
  6  7  4  0  0  0  0
  8  9  4  0  0  0  0
  8 13  4  0  0  0  0
  9 10  4  0  0  0  0
 10 11  4  0  0  0  0
 10 18  1  0  0  0  0
 11 12  4  0  0  0  0
 12 13  4  0  0  0  0
 12 17  1  0  0  0  0
 13 14  1  0  0  0  0
 14 15  1  0  0  0  0
 15 16  1  0  0  0  0
 16 17  1  0  0  0  0
 18 19  1  0  0  0  0
 19 20  4  0  0  0  0
 19 24  4  0  0  0  0
 20 21  4  0  0  0  0
 21 22  4  0  0  0  0
 22 23  4  0  0  0  0
 23 24  4  0  0  0  0
M  END
>  <Name_Molregno>
435253

>  <5-HT2A>
7.7

>  <5-HT2C>
6.4

$$$$
435288
  Marvin  02231216192D 0   1.00000     0.00000     0

 25 28  0  0  0  0  0  0  0  0999 V2000
   -0.9652    0.9614    0.0000 N   0  0  0  0  0  0  0  0  0
   -0.2507    1.3739    0.0000 C   0  0  0  0  0  0  0  0  0
    0.4637    0.9614    0.0000 C   0  0  0  0  0  0  0  0  0
    1.1087    1.4758    0.0000 C   0  0  0  0  0  0  0  0  0
    1.9131    1.2922    0.0000 C   0  0  0  0  0  0  0  0  0
    2.2710    0.5489    0.0000 N   0  0  0  0  0  0  0  0  0
    1.9131   -0.1944    0.0000 C   0  0  0  0  0  0  0  0  0
    1.1087   -0.3780    0.0000 C   0  0  0  0  0  0  0  0  0
    0.4637    0.1364    0.0000 C   0  0  0  0  0  0  0  0  0
   -0.2507   -0.2761    0.0000 N   0  0  0  0  0  0  0  0  0
   -0.9652    0.1364    0.0000 C   0  0  0  0  0  0  0  0  0
   -1.6797   -0.2761    0.0000 C   0  0  0  0  0  0  0  0  0
   -1.6797   -1.1011    0.0000 C   0  0  0  0  0  0  0  0  0
   -0.9652   -1.5136    0.0000 C   0  0  0  0  0  0  0  0  0
   -0.9652   -2.3386    0.0000 C   0  0  0  0  0  0  0  0  0
   -1.6797   -2.7511    0.0000 C   0  0  0  0  0  0  0  0  0
   -2.3942   -2.3386    0.0000 C   0  0  0  0  0  0  0  0  0
   -2.3942   -1.5136    0.0000 C   0  0  0  0  0  0  0  0  0
   -0.2507    2.1989    0.0000 C   0  0  0  0  0  0  0  0  0
   -0.9652    2.6114    0.0000 C   0  0  0  0  0  0  0  0  0
   -0.9652    3.4364    0.0000 C   0  0  0  0  0  0  0  0  0
   -0.2507    3.8489    0.0000 C   0  0  0  0  0  0  0  0  0
    0.4637    3.4364    0.0000 C   0  0  0  0  0  0  0  0  0
    0.4637    2.6114    0.0000 C   0  0  0  0  0  0  0  0  0
   -0.2507    4.6739    0.0000 C   0  0  0  0  0  0  0  0  0
  1  2  4  0  0  0  0
  1 11  4  0  0  0  0
  2  3  4  0  0  0  0
  2 19  1  0  0  0  0
  3  4  1  0  0  0  0
  3  9  4  0  0  0  0
  4  5  1  0  0  0  0
  5  6  1  0  0  0  0
  6  7  1  0  0  0  0
  7  8  1  0  0  0  0
  8  9  1  0  0  0  0
  9 10  4  0  0  0  0
 10 11  4  0  0  0  0
 11 12  1  0  0  0  0
 12 13  1  0  0  0  0
 13 14  4  0  0  0  0
 13 18  4  0  0  0  0
 14 15  4  0  0  0  0
 15 16  4  0  0  0  0
 16 17  4  0  0  0  0
 17 18  4  0  0  0  0
 19 20  4  0  0  0  0
 19 24  4  0  0  0  0
 20 21  4  0  0  0  0
 21 22  4  0  0  0  0
 22 23  4  0  0  0  0
 22 25  1  0  0  0  0
 23 24  4  0  0  0  0
M  END
>  <Name_Molregno>
435288

>  <5-HT2A>
9.4

>  <5-HT2C>
7.82

$$$$
435290
  Marvin  02231216192D 0   1.00000     0.00000     0

 25 28  0  0  0  0  0  0  0  0999 V2000
    4.2498    3.4113    0.0000 F   0  0  0  0  0  0  0  0  0
    4.2498    2.5863    0.0000 C   0  0  0  0  0  0  0  0  0
    4.9643    2.1738    0.0000 C   0  0  0  0  0  0  0  0  0
    4.9643    1.3488    0.0000 C   0  0  0  0  0  0  0  0  0
    4.2498    0.9363    0.0000 C   0  0  0  0  0  0  0  0  0
    3.5354    1.3488    0.0000 C   0  0  0  0  0  0  0  0  0
    3.5354    2.1738    0.0000 C   0  0  0  0  0  0  0  0  0
    4.2498    0.1113    0.0000 C   0  0  0  0  0  0  0  0  0
    3.5354   -0.3012    0.0000 N   0  0  0  0  0  0  0  0  0
    3.5354   -1.1262    0.0000 C   0  0  0  0  0  0  0  0  0
    4.2498   -1.5387    0.0000 N   0  0  0  0  0  0  0  0  0
    4.9643   -1.1262    0.0000 C   0  0  0  0  0  0  0  0  0
    4.9643   -0.3012    0.0000 C   0  0  0  0  0  0  0  0  0
    5.6093    0.2132    0.0000 C   0  0  0  0  0  0  0  0  0
    6.4136    0.0296    0.0000 C   0  0  0  0  0  0  0  0  0
    6.7716   -0.7137    0.0000 N   0  0  0  0  0  0  0  0  0
    6.4136   -1.4570    0.0000 C   0  0  0  0  0  0  0  0  0
    5.6093   -1.6405    0.0000 C   0  0  0  0  0  0  0  0  0
    2.8209   -1.5387    0.0000 C   0  0  0  0  0  0  0  0  0
    2.1064   -1.1262    0.0000 C   0  0  0  0  0  0  0  0  0
    1.3920   -1.5387    0.0000 C   0  0  0  0  0  0  0  0  0
    0.6775   -1.1262    0.0000 C   0  0  0  0  0  0  0  0  0
    0.6775   -0.3012    0.0000 C   0  0  0  0  0  0  0  0  0
    1.3920    0.1113    0.0000 C   0  0  0  0  0  0  0  0  0
    2.1064   -0.3012    0.0000 C   0  0  0  0  0  0  0  0  0
  1  2  1  0  0  0  0
  2  3  4  0  0  0  0
  2  7  4  0  0  0  0
  3  4  4  0  0  0  0
  4  5  4  0  0  0  0
  5  6  4  0  0  0  0
  5  8  1  0  0  0  0
  6  7  4  0  0  0  0
  8  9  4  0  0  0  0
  8 13  4  0  0  0  0
  9 10  4  0  0  0  0
 10 11  4  0  0  0  0
 10 19  1  0  0  0  0
 11 12  4  0  0  0  0
 12 13  4  0  0  0  0
 12 18  1  0  0  0  0
 13 14  1  0  0  0  0
 14 15  1  0  0  0  0
 15 16  1  0  0  0  0
 16 17  1  0  0  0  0
 17 18  1  0  0  0  0
 19 20  1  0  0  0  0
 20 21  4  0  0  0  0
 20 25  4  0  0  0  0
 21 22  4  0  0  0  0
 22 23  4  0  0  0  0
 23 24  4  0  0  0  0
 24 25  4  0  0  0  0
M  END
>  <Name_Molregno>
435290

>  <5-HT2A>
9.22

>  <5-HT2C>
7.7

$$$$
435292
  Marvin  02231216192D 0   1.00000     0.00000     0

 26 29  0  0  0  0  0  0  0  0999 V2000
    4.5607    3.3546    0.0000 F   0  0  0  0  0  0  0  0  0
    4.5607    2.5296    0.0000 C   0  0  0  0  0  0  0  0  0
    5.2751    2.1171    0.0000 C   0  0  0  0  0  0  0  0  0
    5.2751    1.2921    0.0000 C   0  0  0  0  0  0  0  0  0
    4.5607    0.8796    0.0000 C   0  0  0  0  0  0  0  0  0
    3.8462    1.2921    0.0000 C   0  0  0  0  0  0  0  0  0
    3.8462    2.1171    0.0000 C   0  0  0  0  0  0  0  0  0
    4.5607    0.0546    0.0000 C   0  0  0  0  0  0  0  0  0
    3.8462   -0.3579    0.0000 N   0  0  0  0  0  0  0  0  0
    3.8462   -1.1829    0.0000 C   0  0  0  0  0  0  0  0  0
    4.5607   -1.5954    0.0000 N   0  0  0  0  0  0  0  0  0
    5.2751   -1.1829    0.0000 C   0  0  0  0  0  0  0  0  0
    5.2751   -0.3579    0.0000 C   0  0  0  0  0  0  0  0  0
    5.9202    0.1565    0.0000 C   0  0  0  0  0  0  0  0  0
    6.7245   -0.0271    0.0000 C   0  0  0  0  0  0  0  0  0
    7.0824   -0.7704    0.0000 N   0  0  0  0  0  0  0  0  0
    6.7245   -1.5137    0.0000 C   0  0  0  0  0  0  0  0  0
    5.9202   -1.6973    0.0000 C   0  0  0  0  0  0  0  0  0
    3.1317   -1.5954    0.0000 C   0  0  0  0  0  0  0  0  0
    2.4173   -1.1829    0.0000 C   0  0  0  0  0  0  0  0  0
    1.7028   -1.5954    0.0000 C   0  0  0  0  0  0  0  0  0
    0.9883   -1.1829    0.0000 C   0  0  0  0  0  0  0  0  0
    0.9883   -0.3579    0.0000 C   0  0  0  0  0  0  0  0  0
    0.2739    0.0546    0.0000 F   0  0  0  0  0  0  0  0  0
    1.7028    0.0546    0.0000 C   0  0  0  0  0  0  0  0  0
    2.4173   -0.3579    0.0000 C   0  0  0  0  0  0  0  0  0
  1  2  1  0  0  0  0
  2  3  4  0  0  0  0
  2  7  4  0  0  0  0
  3  4  4  0  0  0  0
  4  5  4  0  0  0  0
  5  6  4  0  0  0  0
  5  8  1  0  0  0  0
  6  7  4  0  0  0  0
  8  9  4  0  0  0  0
  8 13  4  0  0  0  0
  9 10  4  0  0  0  0
 10 11  4  0  0  0  0
 10 19  1  0  0  0  0
 11 12  4  0  0  0  0
 12 13  4  0  0  0  0
 12 18  1  0  0  0  0
 13 14  1  0  0  0  0
 14 15  1  0  0  0  0
 15 16  1  0  0  0  0
 16 17  1  0  0  0  0
 17 18  1  0  0  0  0
 19 20  1  0  0  0  0
 20 21  4  0  0  0  0
 20 26  4  0  0  0  0
 21 22  4  0  0  0  0
 22 23  4  0  0  0  0
 23 24  1  0  0  0  0
 23 25  4  0  0  0  0
 25 26  4  0  0  0  0
M  END
>  <Name_Molregno>
435292

>  <5-HT2A>
9.15

>  <5-HT2C>
7.3

$$$$
435331
  Marvin  02231216192D 0   1.00000     0.00000     0

 24 27  0  0  0  0  0  0  0  0999 V2000
   -0.0673    0.0767    0.0000 N   0  0  0  0  0  0  0  0  0
    0.6471    0.4892    0.0000 C   0  0  0  0  0  0  0  0  0
    1.3616    0.0767    0.0000 C   0  0  0  0  0  0  0  0  0
    2.0066    0.5910    0.0000 C   0  0  0  0  0  0  0  0  0
    2.8109    0.4075    0.0000 C   0  0  0  0  0  0  0  0  0
    3.1689   -0.3358    0.0000 N   0  0  0  0  0  0  0  0  0
    2.8109   -1.0791    0.0000 C   0  0  0  0  0  0  0  0  0
    2.0066   -1.2627    0.0000 C   0  0  0  0  0  0  0  0  0
    1.3616   -0.7483    0.0000 C   0  0  0  0  0  0  0  0  0
    0.6471   -1.1608    0.0000 N   0  0  0  0  0  0  0  0  0
   -0.0673   -0.7483    0.0000 C   0  0  0  0  0  0  0  0  0
   -0.7818   -1.1608    0.0000 C   0  0  0  0  0  0  0  0  0
   -0.8680   -1.9813    0.0000 C   0  0  0  0  0  0  0  0  0
   -1.6750   -2.1529    0.0000 C   0  0  0  0  0  0  0  0  0
   -2.0875   -1.4384    0.0000 C   0  0  0  0  0  0  0  0  0
   -1.5355   -0.8253    0.0000 C   0  0  0  0  0  0  0  0  0
    0.6471    1.3142    0.0000 C   0  0  0  0  0  0  0  0  0
   -0.0673    1.7267    0.0000 C   0  0  0  0  0  0  0  0  0
   -0.0673    2.5517    0.0000 C   0  0  0  0  0  0  0  0  0
    0.6471    2.9642    0.0000 C   0  0  0  0  0  0  0  0  0
    1.3616    2.5517    0.0000 C   0  0  0  0  0  0  0  0  0
    1.3616    1.7267    0.0000 C   0  0  0  0  0  0  0  0  0
    0.6471    3.7892    0.0000 C   0  0  0  0  0  0  0  0  0
    0.6471    4.6142    0.0000 N   0  0  0  0  0  0  0  0  0
  1  2  4  0  0  0  0
  1 11  4  0  0  0  0
  2  3  4  0  0  0  0
  2 17  1  0  0  0  0
  3  4  1  0  0  0  0
  3  9  4  0  0  0  0
  4  5  1  0  0  0  0
  5  6  1  0  0  0  0
  6  7  1  0  0  0  0
  7  8  1  0  0  0  0
  8  9  1  0  0  0  0
  9 10  4  0  0  0  0
 10 11  4  0  0  0  0
 11 12  1  0  0  0  0
 12 13  1  0  0  0  0
 12 16  1  0  0  0  0
 13 14  1  0  0  0  0
 14 15  1  0  0  0  0
 15 16  1  0  0  0  0
 17 18  4  0  0  0  0
 17 22  4  0  0  0  0
 18 19  4  0  0  0  0
 19 20  4  0  0  0  0
 20 21  4  0  0  0  0
 20 23  1  0  0  0  0
 21 22  4  0  0  0  0
 23 24  3  0  0  0  0
M  END
>  <Name_Molregno>
435331

>  <5-HT2A>
7.47

>  <5-HT2C>
6.34

$$$$
435421
  Marvin  02231216192D 0   1.00000     0.00000     0

 24 27  0  0  0  0  0  0  0  0999 V2000
   -3.2472    3.3485    0.0000 O   0  0  0  0  0  0  0  0  0
   -3.9617    3.7610    0.0000 C   0  0  0  0  0  0  0  0  0
   -3.2472    2.5235    0.0000 C   0  0  0  0  0  0  0  0  0
   -2.5328    2.1110    0.0000 C   0  0  0  0  0  0  0  0  0
   -2.5328    1.2860    0.0000 C   0  0  0  0  0  0  0  0  0
   -3.2472    0.8735    0.0000 C   0  0  0  0  0  0  0  0  0
   -3.9617    1.2860    0.0000 C   0  0  0  0  0  0  0  0  0
   -3.9617    2.1110    0.0000 C   0  0  0  0  0  0  0  0  0
   -3.2472    0.0485    0.0000 C   0  0  0  0  0  0  0  0  0
   -3.9617   -0.3640    0.0000 N   0  0  0  0  0  0  0  0  0
   -3.9617   -1.1890    0.0000 C   0  0  0  0  0  0  0  0  0
   -3.2472   -1.6015    0.0000 N   0  0  0  0  0  0  0  0  0
   -2.5328   -1.1890    0.0000 C   0  0  0  0  0  0  0  0  0
   -2.5328   -0.3640    0.0000 C   0  0  0  0  0  0  0  0  0
   -1.8877    0.1503    0.0000 C   0  0  0  0  0  0  0  0  0
   -1.0834   -0.0332    0.0000 C   0  0  0  0  0  0  0  0  0
   -0.7255   -0.7765    0.0000 N   0  0  0  0  0  0  0  0  0
   -1.0834   -1.5198    0.0000 C   0  0  0  0  0  0  0  0  0
   -1.8877   -1.7034    0.0000 C   0  0  0  0  0  0  0  0  0
   -4.6762   -1.6015    0.0000 C   0  0  0  0  0  0  0  0  0
   -4.7624   -2.4220    0.0000 C   0  0  0  0  0  0  0  0  0
   -5.5694   -2.5935    0.0000 C   0  0  0  0  0  0  0  0  0
   -5.9819   -1.8791    0.0000 C   0  0  0  0  0  0  0  0  0
   -5.4298   -1.2660    0.0000 C   0  0  0  0  0  0  0  0  0
  1  2  1  0  0  0  0
  1  3  1  0  0  0  0
  3  4  4  0  0  0  0
  3  8  4  0  0  0  0
  4  5  4  0  0  0  0
  5  6  4  0  0  0  0
  6  7  4  0  0  0  0
  6  9  1  0  0  0  0
  7  8  4  0  0  0  0
  9 10  4  0  0  0  0
  9 14  4  0  0  0  0
 10 11  4  0  0  0  0
 11 12  4  0  0  0  0
 11 20  1  0  0  0  0
 12 13  4  0  0  0  0
 13 14  4  0  0  0  0
 13 19  1  0  0  0  0
 14 15  1  0  0  0  0
 15 16  1  0  0  0  0
 16 17  1  0  0  0  0
 17 18  1  0  0  0  0
 18 19  1  0  0  0  0
 20 21  1  0  0  0  0
 20 24  1  0  0  0  0
 21 22  1  0  0  0  0
 22 23  1  0  0  0  0
 23 24  1  0  0  0  0
M  END
>  <Name_Molregno>
435421

>  <5-HT2A>
7.96

>  <5-HT2C>
6.92

$$$$
435422
  Marvin  02231216192D 0   1.00000     0.00000     0

 23 26  0  0  0  0  0  0  0  0999 V2000
    3.4899    3.5039    0.0000 F   0  0  0  0  0  0  0  0  0
    3.4899    2.6789    0.0000 C   0  0  0  0  0  0  0  0  0
    4.2044    2.2664    0.0000 C   0  0  0  0  0  0  0  0  0
    4.2044    1.4414    0.0000 C   0  0  0  0  0  0  0  0  0
    3.4899    1.0289    0.0000 C   0  0  0  0  0  0  0  0  0
    2.7754    1.4414    0.0000 C   0  0  0  0  0  0  0  0  0
    2.7754    2.2664    0.0000 C   0  0  0  0  0  0  0  0  0
    3.4899    0.2039    0.0000 C   0  0  0  0  0  0  0  0  0
    2.7754   -0.2086    0.0000 N   0  0  0  0  0  0  0  0  0
    2.7754   -1.0336    0.0000 C   0  0  0  0  0  0  0  0  0
    3.4899   -1.4461    0.0000 N   0  0  0  0  0  0  0  0  0
    4.2044   -1.0336    0.0000 C   0  0  0  0  0  0  0  0  0
    4.2044   -0.2086    0.0000 C   0  0  0  0  0  0  0  0  0
    4.8494    0.3058    0.0000 C   0  0  0  0  0  0  0  0  0
    5.6537    0.1222    0.0000 C   0  0  0  0  0  0  0  0  0
    6.0117   -0.6211    0.0000 N   0  0  0  0  0  0  0  0  0
    5.6537   -1.3644    0.0000 C   0  0  0  0  0  0  0  0  0
    4.8494   -1.5480    0.0000 C   0  0  0  0  0  0  0  0  0
    2.0610   -1.4461    0.0000 C   0  0  0  0  0  0  0  0  0
    1.9747   -2.2666    0.0000 C   0  0  0  0  0  0  0  0  0
    1.1678   -2.4381    0.0000 C   0  0  0  0  0  0  0  0  0
    0.7553   -1.7236    0.0000 C   0  0  0  0  0  0  0  0  0
    1.3073   -1.1105    0.0000 C   0  0  0  0  0  0  0  0  0
  1  2  1  0  0  0  0
  2  3  4  0  0  0  0
  2  7  4  0  0  0  0
  3  4  4  0  0  0  0
  4  5  4  0  0  0  0
  5  6  4  0  0  0  0
  5  8  1  0  0  0  0
  6  7  4  0  0  0  0
  8  9  4  0  0  0  0
  8 13  4  0  0  0  0
  9 10  4  0  0  0  0
 10 11  4  0  0  0  0
 10 19  1  0  0  0  0
 11 12  4  0  0  0  0
 12 13  4  0  0  0  0
 12 18  1  0  0  0  0
 13 14  1  0  0  0  0
 14 15  1  0  0  0  0
 15 16  1  0  0  0  0
 16 17  1  0  0  0  0
 17 18  1  0  0  0  0
 19 20  1  0  0  0  0
 19 23  1  0  0  0  0
 20 21  1  0  0  0  0
 21 22  1  0  0  0  0
 22 23  1  0  0  0  0
M  END
>  <Name_Molregno>
435422

>  <5-HT2A>
7.89

>  <5-HT2C>
6.7

$$$$
435424
  Marvin  02231216192D 0   1.00000     0.00000     0

 23 26  0  0  0  0  0  0  0  0999 V2000
   -1.1511    0.3502    0.0000 N   0  0  0  0  0  0  0  0  0
   -0.4366    0.7627    0.0000 C   0  0  0  0  0  0  0  0  0
    0.2779    0.3502    0.0000 C   0  0  0  0  0  0  0  0  0
    0.9229    0.8646    0.0000 C   0  0  0  0  0  0  0  0  0
    1.7272    0.6810    0.0000 C   0  0  0  0  0  0  0  0  0
    2.0851   -0.0623    0.0000 N   0  0  0  0  0  0  0  0  0
    1.7272   -0.8056    0.0000 C   0  0  0  0  0  0  0  0  0
    0.9229   -0.9891    0.0000 C   0  0  0  0  0  0  0  0  0
    0.2779   -0.4748    0.0000 C   0  0  0  0  0  0  0  0  0
   -0.4366   -0.8873    0.0000 N   0  0  0  0  0  0  0  0  0
   -1.1511   -0.4748    0.0000 C   0  0  0  0  0  0  0  0  0
   -1.8656   -0.8873    0.0000 C   0  0  0  0  0  0  0  0  0
   -1.9518   -1.7077    0.0000 C   0  0  0  0  0  0  0  0  0
   -2.7588   -1.8793    0.0000 C   0  0  0  0  0  0  0  0  0
   -3.1713   -1.1648    0.0000 C   0  0  0  0  0  0  0  0  0
   -2.6192   -0.5517    0.0000 C   0  0  0  0  0  0  0  0  0
   -0.4366    1.5877    0.0000 C   0  0  0  0  0  0  0  0  0
   -1.1511    2.0002    0.0000 C   0  0  0  0  0  0  0  0  0
   -1.1511    2.8252    0.0000 C   0  0  0  0  0  0  0  0  0
   -0.4366    3.2377    0.0000 C   0  0  0  0  0  0  0  0  0
    0.2779    2.8252    0.0000 C   0  0  0  0  0  0  0  0  0
    0.2779    2.0002    0.0000 C   0  0  0  0  0  0  0  0  0
   -0.4366    4.0627    0.0000 C   0  0  0  0  0  0  0  0  0
  1  2  4  0  0  0  0
  1 11  4  0  0  0  0
  2  3  4  0  0  0  0
  2 17  1  0  0  0  0
  3  4  1  0  0  0  0
  3  9  4  0  0  0  0
  4  5  1  0  0  0  0
  5  6  1  0  0  0  0
  6  7  1  0  0  0  0
  7  8  1  0  0  0  0
  8  9  1  0  0  0  0
  9 10  4  0  0  0  0
 10 11  4  0  0  0  0
 11 12  1  0  0  0  0
 12 13  1  0  0  0  0
 12 16  1  0  0  0  0
 13 14  1  0  0  0  0
 14 15  1  0  0  0  0
 15 16  1  0  0  0  0
 17 18  4  0  0  0  0
 17 22  4  0  0  0  0
 18 19  4  0  0  0  0
 19 20  4  0  0  0  0
 20 21  4  0  0  0  0
 20 23  1  0  0  0  0
 21 22  4  0  0  0  0
M  END
>  <Name_Molregno>
435424

>  <5-HT2A>
8.6

>  <5-HT2C>
7.64

$$$$
438449
  Marvin  02231216192D 0   1.00000     0.00000     0

 17 18  0  0  1  0  0  0  0  0999 V2000
   -3.7560   -2.6119    0.0000 Cl  0  0  0  0  0  0  0  0  0
   -3.7560   -1.7869    0.0000 C   0  0  0  0  0  0  0  0  0
   -3.0416   -1.3744    0.0000 C   0  0  0  0  0  0  0  0  0
   -3.0416   -0.5494    0.0000 C   0  0  0  0  0  0  0  0  0
   -2.3271   -0.1369    0.0000 N   0  0  0  0  0  0  0  0  0
   -1.6126   -0.5494    0.0000 C   0  0  0  0  0  0  0  0  0
   -1.6126   -1.3744    0.0000 N   0  0  0  0  0  0  0  0  0
   -2.3271   -1.7869    0.0000 C   0  0  0  0  0  0  0  0  0
   -2.3271   -2.6119    0.0000 C   0  0  0  0  0  0  0  0  0
   -0.8981   -0.1369    0.0000 N   0  0  0  0  0  0  0  0  0
   -0.8981    0.6881    0.0000 C   0  0  0  0  0  0  0  0  0
   -0.1837    1.1006    0.0000 C   0  0  0  0  0  0  0  0  0
   -0.1837    1.9256    0.0000 F   0  0  0  0  0  0  0  0  0
    0.5308    0.6881    0.0000 F   0  0  0  0  0  0  0  0  0
   -3.7560   -0.1369    0.0000 C   0  0  0  0  0  0  0  0  0
   -4.4705   -0.5494    0.0000 C   0  0  0  0  0  0  0  0  0
   -4.4705   -1.3744    0.0000 C   0  0  0  0  0  0  0  0  0
  1  2  1  0  0  0  0
  2  3  4  0  0  0  0
  2 17  4  0  0  0  0
  3  4  4  0  0  0  0
  3  8  1  0  0  0  0
  4  5  1  0  0  0  0
  4 15  4  0  0  0  0
  5  6  2  0  0  0  0
  6  7  1  0  0  0  0
  6 10  1  0  0  0  0
  7  8  1  0  0  0  0
  8  9  1  0  0  0  0
 10 11  1  0  0  0  0
 11 12  1  0  0  0  0
 12 13  1  0  0  0  0
 12 14  1  0  0  0  0
 15 16  4  0  0  0  0
 16 17  4  0  0  0  0
M  END
>  <Name_Molregno>
438449

>  <5-HT1A>
7.25

>  <5-HT1D>
5.84

>  <5-HT2A>
6.31

>  <5-HT2C>
6.45

>  <5-HT5>
7.55

>  <5-HT6>
5.35

>  <5-HT7>
7.55

$$$$
438497
  Marvin  02231216192D 0   1.00000     0.00000     0

 13 14  0  0  1  0  0  0  0  0999 V2000
   -2.3294   -2.2673    0.0000 Cl  0  0  0  0  0  0  0  0  0
   -2.3294   -1.4423    0.0000 C   0  0  0  0  0  0  0  0  0
   -1.6149   -1.0298    0.0000 C   0  0  0  0  0  0  0  0  0
   -1.6149   -0.2048    0.0000 C   0  0  0  0  0  0  0  0  0
   -0.9005    0.2077    0.0000 N   0  0  0  0  0  0  0  0  0
   -0.1860   -0.2048    0.0000 C   0  0  0  0  0  0  0  0  0
   -0.1860   -1.0298    0.0000 N   0  0  0  0  0  0  0  0  0
   -0.9005   -1.4423    0.0000 C   0  0  0  0  0  0  0  0  0
   -0.9005   -2.2673    0.0000 C   0  0  0  0  0  0  0  0  0
    0.5285    0.2077    0.0000 N   0  0  0  0  0  0  0  0  0
   -2.3294    0.2077    0.0000 C   0  0  0  0  0  0  0  0  0
   -3.0439   -0.2048    0.0000 C   0  0  0  0  0  0  0  0  0
   -3.0439   -1.0298    0.0000 C   0  0  0  0  0  0  0  0  0
  1  2  1  0  0  0  0
  2  3  4  0  0  0  0
  2 13  4  0  0  0  0
  3  4  4  0  0  0  0
  3  8  1  0  0  0  0
  4  5  1  0  0  0  0
  4 11  4  0  0  0  0
  5  6  2  0  0  0  0
  6  7  1  0  0  0  0
  6 10  1  0  0  0  0
  7  8  1  0  0  0  0
  8  9  1  0  0  0  0
 11 12  4  0  0  0  0
 12 13  4  0  0  0  0
M  END
>  <Name_Molregno>
438497

>  <5-HT1A>
6.87

>  <5-HT1D>
5.93

>  <5-HT2A>
6.59

>  <5-HT2C>
7.04

>  <5-HT3>
5.97

>  <5-HT5>
8.01

>  <5-HT6>
5.99

>  <5-HT7>
7.94

$$$$
438696
  Marvin  02231216192D 0   1.00000     0.00000     0

 12 13  0  0  0  0  0  0  0  0999 V2000
   -2.2994    0.6418    0.0000 Cl  0  0  0  0  0  0  0  0  0
   -2.2994   -0.1832    0.0000 C   0  0  0  0  0  0  0  0  0
   -1.5850   -0.5957    0.0000 C   0  0  0  0  0  0  0  0  0
   -0.8705   -0.1832    0.0000 C   0  0  0  0  0  0  0  0  0
   -0.1560   -0.5957    0.0000 N   0  0  0  0  0  0  0  0  0
   -0.1560   -1.4207    0.0000 C   0  0  0  0  0  0  0  0  0
   -0.8705   -1.8332    0.0000 N   0  0  0  0  0  0  0  0  0
   -1.5850   -1.4207    0.0000 C   0  0  0  0  0  0  0  0  0
   -2.2994   -1.8332    0.0000 C   0  0  0  0  0  0  0  0  0
   -3.0139   -1.4207    0.0000 C   0  0  0  0  0  0  0  0  0
   -3.0139   -0.5957    0.0000 C   0  0  0  0  0  0  0  0  0
    0.5584   -1.8332    0.0000 N   0  0  0  0  0  0  0  0  0
  1  2  1  0  0  0  0
  2  3  4  0  0  0  0
  2 11  4  0  0  0  0
  3  4  1  0  0  0  0
  3  8  4  0  0  0  0
  4  5  1  0  0  0  0
  5  6  1  0  0  0  0
  6  7  2  0  0  0  0
  6 12  1  0  0  0  0
  7  8  1  0  0  0  0
  8  9  4  0  0  0  0
  9 10  4  0  0  0  0
 10 11  4  0  0  0  0
M  END
>  <Name_Molregno>
438696

>  <5-HT1A>
5.77

>  <5-HT1D>
5.44

>  <5-HT2A>
5.93

>  <5-HT2C>
6.18

>  <5-HT3>
5.98

>  <5-HT5>
7

>  <5-HT6>
5

>  <5-HT7>
6.1

$$$$
438697
  Marvin  02231216192D 0   1.00000     0.00000     0

 13 14  0  0  0  0  0  0  0  0999 V2000
   -1.9496    0.5488    0.0000 Cl  0  0  0  0  0  0  0  0  0
   -1.9496   -0.2762    0.0000 C   0  0  0  0  0  0  0  0  0
   -1.2351   -0.6887    0.0000 C   0  0  0  0  0  0  0  0  0
   -0.5207   -0.2762    0.0000 C   0  0  0  0  0  0  0  0  0
    0.1938   -0.6887    0.0000 N   0  0  0  0  0  0  0  0  0
    0.1938   -1.5137    0.0000 C   0  0  0  0  0  0  0  0  0
   -0.5207   -1.9262    0.0000 N   0  0  0  0  0  0  0  0  0
   -1.2351   -1.5137    0.0000 C   0  0  0  0  0  0  0  0  0
   -1.9496   -1.9262    0.0000 C   0  0  0  0  0  0  0  0  0
   -2.6641   -1.5137    0.0000 C   0  0  0  0  0  0  0  0  0
   -2.6641   -0.6887    0.0000 C   0  0  0  0  0  0  0  0  0
   -3.3785   -0.2762    0.0000 Cl  0  0  0  0  0  0  0  0  0
    0.9083   -1.9262    0.0000 N   0  0  0  0  0  0  0  0  0
  1  2  1  0  0  0  0
  2  3  4  0  0  0  0
  2 11  4  0  0  0  0
  3  4  1  0  0  0  0
  3  8  4  0  0  0  0
  4  5  1  0  0  0  0
  5  6  1  0  0  0  0
  6  7  2  0  0  0  0
  6 13  1  0  0  0  0
  7  8  1  0  0  0  0
  8  9  4  0  0  0  0
  9 10  4  0  0  0  0
 10 11  4  0  0  0  0
 11 12  1  0  0  0  0
M  END
>  <Name_Molregno>
438697

>  <5-HT1A>
5.97

>  <5-HT1D>
5.9

>  <5-HT2A>
6.36

>  <5-HT2C>
6.68

>  <5-HT3>
6.76

>  <5-HT5>
7.37

>  <5-HT6>
5.94

>  <5-HT7>
6.53

$$$$
443503
  Marvin  02231216192D 0   1.00000     0.00000     0

 26 28  0  0  1  0  0  0  0  0999 V2000
    5.1037   -3.2541    0.0000 Br  0  0  0  0  0  0  0  0  0
    4.5517   -2.6410    0.0000 C   0  0  0  0  0  0  0  0  0
    3.7447   -2.8125    0.0000 C   0  0  0  0  0  0  0  0  0
    3.1927   -2.1994    0.0000 C   0  0  0  0  0  0  0  0  0
    2.3677   -2.1994    0.0000 N   0  0  0  0  0  0  0  0  0
    2.1128   -1.4148    0.0000 C   0  0  0  0  0  0  0  0  0
    2.7802   -0.9299    0.0000 C   0  0  0  0  0  0  0  0  0
    3.4476   -1.4148    0.0000 C   0  0  0  0  0  0  0  0  0
    4.2546   -1.2433    0.0000 C   0  0  0  0  0  0  0  0  0
    4.8067   -1.8564    0.0000 C   0  0  0  0  0  0  0  0  0
    2.7802   -0.1049    0.0000 C   0  0  0  0  0  0  0  0  0
    3.4947    0.3076    0.0000 C   0  0  0  0  0  0  0  0  0
    4.2091   -0.1049    0.0000 N   0  0  0  0  0  0  0  0  0
    4.9236    0.3076    0.0000 C   0  0  0  0  0  0  0  0  0
    5.6381   -0.1049    0.0000 O   0  0  0  0  0  0  0  0  0
    4.9236    1.1326    0.0000 C   0  0  0  0  0  0  0  0  0
    4.2091    1.5451    0.0000 N   0  0  0  0  0  0  0  0  0
    3.4947    1.1326    0.0000 C   0  0  0  0  0  0  0  0  0
    2.7802    1.5451    0.0000 O   0  0  0  0  0  0  0  0  0
    5.6381    1.5451    0.0000 C   0  0  0  0  0  0  0  0  0
    6.3526    1.1326    0.0000 C   0  0  0  0  0  0  0  0  0
    7.0670    1.5451    0.0000 C   0  0  0  0  0  0  0  0  0
    7.7815    1.1326    0.0000 N   0  0  0  0  0  0  0  0  0
    8.4960    1.5451    0.0000 C   0  0  0  0  0  0  0  0  0
    9.2104    1.1326    0.0000 N   0  0  0  0  0  0  0  0  0
    8.4960    2.3701    0.0000 N   0  0  0  0  0  0  0  0  0
  1  2  1  0  0  0  0
  2  3  4  0  0  0  0
  2 10  4  0  0  0  0
  3  4  4  0  0  0  0
  4  5  4  0  0  0  0
  4  8  4  0  0  0  0
  5  6  4  0  0  0  0
  6  7  4  0  0  0  0
  7  8  4  0  0  0  0
  7 11  1  0  0  0  0
  8  9  4  0  0  0  0
  9 10  4  0  0  0  0
 11 12  1  0  0  0  0
 12 13  1  0  0  0  0
 12 18  1  0  0  0  0
 13 14  1  0  0  0  0
 14 15  2  0  0  0  0
 14 16  1  0  0  0  0
 16 17  1  0  0  0  0
 16 20  1  0  0  0  0
 17 18  1  0  0  0  0
 18 19  2  0  0  0  0
 20 21  1  0  0  0  0
 21 22  1  0  0  0  0
 22 23  1  0  0  0  0
 23 24  1  0  0  0  0
 24 25  1  0  0  0  0
 24 26  2  0  0  0  0
M  STY  1   1 DAT
M  SAL   1  1   5
M  SDT   1 MRV_IMPLICIT_H                                        
M  SDD   1     0.0000    0.0000    DR    ALL  0       0  
M  SED   1 IMPL_H1
M  END
>  <Name_Molregno>
443503

>  <5-HT1A>
5

>  <5-HT1D>
5

>  <5-HT2A>
5

>  <5-HT2C>
5.33

>  <5-HT3>
5

>  <5-HT5>
5

>  <5-HT6>
5

>  <5-HT7>
5

$$$$
464751
  Marvin  02231216192D 0   1.00000     0.00000     0

 19 21  0  0  0  0  0  0  0  0999 V2000
    6.6559   -1.8647    0.0000 Br  0  0  0  0  0  0  0  0  0
    5.9414   -1.4522    0.0000 C   0  0  0  0  0  0  0  0  0
    5.2270   -1.8647    0.0000 C   0  0  0  0  0  0  0  0  0
    4.5125   -1.4522    0.0000 C   0  0  0  0  0  0  0  0  0
    3.7279   -1.7071    0.0000 N   0  0  0  0  0  0  0  0  0
    3.2429   -1.0397    0.0000 C   0  0  0  0  0  0  0  0  0
    3.7279   -0.3722    0.0000 C   0  0  0  0  0  0  0  0  0
    4.5125   -0.6272    0.0000 C   0  0  0  0  0  0  0  0  0
    5.2270   -0.2147    0.0000 C   0  0  0  0  0  0  0  0  0
    5.9414   -0.6272    0.0000 C   0  0  0  0  0  0  0  0  0
    3.4729    0.4124    0.0000 C   0  0  0  0  0  0  0  0  0
    2.6660    0.5839    0.0000 C   0  0  0  0  0  0  0  0  0
    2.0529    0.0319    0.0000 N   0  0  0  0  0  0  0  0  0
    1.3384    0.4444    0.0000 C   0  0  0  0  0  0  0  0  0
    0.5847    0.1088    0.0000 N   0  0  0  0  0  0  0  0  0
    1.5099    1.2514    0.0000 N   0  0  0  0  0  0  0  0  0
    0.9579    1.8645    0.0000 C   0  0  0  0  0  0  0  0  0
    2.3304    1.3376    0.0000 C   0  0  0  0  0  0  0  0  0
    2.7429    2.0521    0.0000 O   0  0  0  0  0  0  0  0  0
  1  2  1  0  0  0  0
  2  3  4  0  0  0  0
  2 10  4  0  0  0  0
  3  4  4  0  0  0  0
  4  5  4  0  0  0  0
  4  8  4  0  0  0  0
  5  6  4  0  0  0  0
  6  7  4  0  0  0  0
  7  8  4  0  0  0  0
  7 11  1  0  0  0  0
  8  9  4  0  0  0  0
  9 10  4  0  0  0  0
 11 12  2  0  0  0  0
 12 13  1  0  0  0  0
 12 18  1  0  0  0  0
 13 14  1  0  0  0  0
 14 15  2  0  0  0  0
 14 16  1  0  0  0  0
 16 17  1  0  0  0  0
 16 18  1  0  0  0  0
 18 19  2  0  0  0  0
M  STY  1   1 DAT
M  SAL   1  1   5
M  SDT   1 MRV_IMPLICIT_H                                        
M  SDD   1     0.0000    0.0000    DR    ALL  0       0  
M  SED   1 IMPL_H1
M  END
>  <Name_Molregno>
464751

>  <5-HT2A>
4

>  <5-HT2C>
5.64

$$$$
464752
  Marvin  02231216192D 0   1.00000     0.00000     0

 20 22  0  0  0  0  0  0  0  0999 V2000
    6.7675   -1.8400    0.0000 Br  0  0  0  0  0  0  0  0  0
    6.0530   -1.4275    0.0000 C   0  0  0  0  0  0  0  0  0
    5.3386   -1.8400    0.0000 C   0  0  0  0  0  0  0  0  0
    4.6241   -1.4275    0.0000 C   0  0  0  0  0  0  0  0  0
    3.8395   -1.6825    0.0000 N   0  0  0  0  0  0  0  0  0
    3.3546   -1.0150    0.0000 C   0  0  0  0  0  0  0  0  0
    3.8395   -0.3476    0.0000 C   0  0  0  0  0  0  0  0  0
    4.6241   -0.6025    0.0000 C   0  0  0  0  0  0  0  0  0
    5.3386   -0.1900    0.0000 C   0  0  0  0  0  0  0  0  0
    6.0530   -0.6025    0.0000 C   0  0  0  0  0  0  0  0  0
    3.5845    0.4370    0.0000 C   0  0  0  0  0  0  0  0  0
    2.7776    0.6086    0.0000 C   0  0  0  0  0  0  0  0  0
    2.1645    0.0565    0.0000 N   0  0  0  0  0  0  0  0  0
    2.2507   -0.7640    0.0000 C   0  0  0  0  0  0  0  0  0
    1.4500    0.4690    0.0000 C   0  0  0  0  0  0  0  0  0
    0.6963    0.1335    0.0000 N   0  0  0  0  0  0  0  0  0
    1.6215    1.2760    0.0000 N   0  0  0  0  0  0  0  0  0
    1.0695    1.8891    0.0000 C   0  0  0  0  0  0  0  0  0
    2.4420    1.3622    0.0000 C   0  0  0  0  0  0  0  0  0
    2.8545    2.0767    0.0000 O   0  0  0  0  0  0  0  0  0
  1  2  1  0  0  0  0
  2  3  4  0  0  0  0
  2 10  4  0  0  0  0
  3  4  4  0  0  0  0
  4  5  4  0  0  0  0
  4  8  4  0  0  0  0
  5  6  4  0  0  0  0
  6  7  4  0  0  0  0
  7  8  4  0  0  0  0
  7 11  1  0  0  0  0
  8  9  4  0  0  0  0
  9 10  4  0  0  0  0
 11 12  2  0  0  0  0
 12 13  1  0  0  0  0
 12 19  1  0  0  0  0
 13 14  1  0  0  0  0
 13 15  1  0  0  0  0
 15 16  2  0  0  0  0
 15 17  1  0  0  0  0
 17 18  1  0  0  0  0
 17 19  1  0  0  0  0
 19 20  2  0  0  0  0
M  STY  1   1 DAT
M  SAL   1  1   5
M  SDT   1 MRV_IMPLICIT_H                                        
M  SDD   1     0.0000    0.0000    DR    ALL  0       0  
M  SED   1 IMPL_H1
M  END
>  <Name_Molregno>
464752

>  <5-HT2A>
5.7

>  <5-HT2C>
6.07

$$$$
464754
  Marvin  02231216192D 0   1.00000     0.00000     0

 21 23  0  0  0  0  0  0  0  0999 V2000
    0.8307   -0.7021    0.0000 O   0  0  0  0  0  0  0  0  0
    0.4182   -1.4166    0.0000 C   0  0  0  0  0  0  0  0  0
    0.7538   -2.1702    0.0000 N   0  0  0  0  0  0  0  0  0
    1.5607   -2.3418    0.0000 C   0  0  0  0  0  0  0  0  0
    0.1407   -2.7223    0.0000 C   0  0  0  0  0  0  0  0  0
    0.2269   -3.5427    0.0000 N   0  0  0  0  0  0  0  0  0
    0.9806   -3.8783    0.0000 C   0  0  0  0  0  0  0  0  0
    1.0668   -4.6988    0.0000 C   0  0  0  0  0  0  0  0  0
   -0.5738   -2.3098    0.0000 N   0  0  0  0  0  0  0  0  0
   -1.3275   -2.6453    0.0000 C   0  0  0  0  0  0  0  0  0
   -0.4023   -1.5028    0.0000 C   0  0  0  0  0  0  0  0  0
   -0.9543   -0.8897    0.0000 C   0  0  0  0  0  0  0  0  0
   -0.6994   -0.1051    0.0000 C   0  0  0  0  0  0  0  0  0
    0.0853    0.1499    0.0000 C   0  0  0  0  0  0  0  0  0
    0.0853    0.9749    0.0000 C   0  0  0  0  0  0  0  0  0
   -0.6994    1.2298    0.0000 N   0  0  0  0  0  0  0  0  0
   -1.1843    0.5624    0.0000 C   0  0  0  0  0  0  0  0  0
    0.7997    1.3874    0.0000 C   0  0  0  0  0  0  0  0  0
    1.5142    0.9749    0.0000 C   0  0  0  0  0  0  0  0  0
    1.5142    0.1499    0.0000 C   0  0  0  0  0  0  0  0  0
    0.7997   -0.2626    0.0000 C   0  0  0  0  0  0  0  0  0
  1  2  2  0  0  0  0
  2  3  1  0  0  0  0
  2 11  1  0  0  0  0
  3  4  1  0  0  0  0
  3  5  1  0  0  0  0
  5  6  2  0  0  0  0
  5  9  1  0  0  0  0
  6  7  1  0  0  0  0
  7  8  1  0  0  0  0
  9 10  1  0  0  0  0
  9 11  1  0  0  0  0
 11 12  2  0  0  0  0
 12 13  1  0  0  0  0
 13 14  4  0  0  0  0
 13 17  4  0  0  0  0
 14 15  4  0  0  0  0
 14 21  4  0  0  0  0
 15 16  4  0  0  0  0
 15 18  4  0  0  0  0
 16 17  4  0  0  0  0
 18 19  4  0  0  0  0
 19 20  4  0  0  0  0
 20 21  4  0  0  0  0
M  STY  1   1 DAT
M  SAL   1  1  16
M  SDT   1 MRV_IMPLICIT_H                                        
M  SDD   1     0.0000    0.0000    DR    ALL  0       0  
M  SED   1 IMPL_H1
M  END
>  <Name_Molregno>
464754

>  <5-HT2A>
5.77

>  <5-HT2C>
5.46

$$$$
470469
  Marvin  02231216192D 0   1.00000     0.00000     0

 30 33  0  0  1  0  0  0  0  0999 V2000
    3.8152    3.0235    0.0000 F   0  0  0  0  0  0  0  0  0
    4.5297    2.6110    0.0000 C   0  0  0  0  0  0  0  0  0
    5.2441    3.0235    0.0000 C   0  0  0  0  0  0  0  0  0
    5.9586    2.6110    0.0000 C   0  0  0  0  0  0  0  0  0
    5.9586    1.7860    0.0000 C   0  0  0  0  0  0  0  0  0
    5.2441    1.3735    0.0000 C   0  0  0  0  0  0  0  0  0
    4.5297    1.7860    0.0000 C   0  0  0  0  0  0  0  0  0
    6.6731    1.3735    0.0000 C   0  0  0  0  0  0  0  0  0
    7.3875    1.7860    0.0000 O   0  0  0  0  0  0  0  0  0
    6.6731    0.5485    0.0000 C   0  0  0  0  0  0  0  0  0
    7.3875    0.1360    0.0000 C   0  0  0  0  0  0  0  0  0
    7.3875   -0.6890    0.0000 C   0  0  0  0  0  0  0  0  0
    6.6731   -1.1015    0.0000 N   0  0  0  0  0  0  0  0  0
    5.9586   -0.6890    0.0000 C   0  0  0  0  0  0  0  0  0
    5.9586    0.1360    0.0000 C   0  0  0  0  0  0  0  0  0
    6.6731   -1.9265    0.0000 C   0  0  0  0  0  0  0  0  0
    5.9586   -2.3390    0.0000 C   0  0  0  0  0  0  0  0  0
    5.9586   -3.1640    0.0000 C   0  0  0  0  0  0  0  0  0
    5.2441   -3.5765    0.0000 C   0  0  0  0  0  0  0  0  0
    5.2441   -4.4015    0.0000 O   0  0  0  0  0  0  0  0  0
    4.5297   -3.1640    0.0000 C   0  0  0  0  0  0  0  0  0
    4.5297   -2.3390    0.0000 C   0  0  0  0  0  0  0  0  0
    3.7450   -2.0840    0.0000 O   0  0  0  0  0  0  0  0  0
    3.2601   -2.7515    0.0000 C   0  0  0  0  0  0  0  0  0
    3.7450   -3.4189    0.0000 C   0  0  0  0  0  0  0  0  0
    3.4901   -4.2035    0.0000 C   0  0  0  0  0  0  0  0  0
    2.6831   -4.3750    0.0000 O   0  0  0  0  0  0  0  0  0
    2.4282   -5.1597    0.0000 C   0  0  0  0  0  0  0  0  0
    4.0421   -4.8166    0.0000 O   0  0  0  0  0  0  0  0  0
    5.2441   -1.9265    0.0000 C   0  0  0  0  0  0  0  0  0
  1  2  1  0  0  0  0
  2  3  4  0  0  0  0
  2  7  4  0  0  0  0
  3  4  4  0  0  0  0
  4  5  4  0  0  0  0
  5  6  4  0  0  0  0
  5  8  1  0  0  0  0
  6  7  4  0  0  0  0
  8  9  2  0  0  0  0
  8 10  1  0  0  0  0
 10 11  1  0  0  0  0
 10 15  1  0  0  0  0
 11 12  1  0  0  0  0
 12 13  1  0  0  0  0
 13 14  1  0  0  0  0
 13 16  1  0  0  0  0
 14 15  1  0  0  0  0
 16 17  1  0  0  0  0
 17 18  1  0  0  0  0
 17 30  1  0  0  0  0
 18 19  1  0  0  0  0
 19 20  2  0  0  0  0
 19 21  1  0  0  0  0
 21 22  4  0  0  0  0
 21 25  4  0  0  0  0
 22 23  4  0  0  0  0
 22 30  1  0  0  0  0
 23 24  4  0  0  0  0
 24 25  4  0  0  0  0
 25 26  1  0  0  0  0
 26 27  1  0  0  0  0
 26 29  2  0  0  0  0
 27 28  1  0  0  0  0
M  END
>  <Name_Molregno>
470469

>  <5-HT2A>
7.59

>  <5-HT2C>
5

>  <DOPAMINE D2>
5

$$$$
470538
  Marvin  02231216192D 0   1.00000     0.00000     0

 32 36  0  0  1  0  0  0  0  0999 V2000
   11.5243    1.7860    0.0000 F   0  0  0  0  0  0  0  0  0
   10.8099    1.3735    0.0000 C   0  0  0  0  0  0  0  0  0
   10.8099    0.5485    0.0000 C   0  0  0  0  0  0  0  0  0
   10.0954    0.1360    0.0000 C   0  0  0  0  0  0  0  0  0
    9.3809    0.5485    0.0000 C   0  0  0  0  0  0  0  0  0
    9.3809    1.3735    0.0000 C   0  0  0  0  0  0  0  0  0
   10.0954    1.7860    0.0000 C   0  0  0  0  0  0  0  0  0
    8.6665    0.1360    0.0000 C   0  0  0  0  0  0  0  0  0
    8.6665   -0.6890    0.0000 O   0  0  0  0  0  0  0  0  0
    7.9520    0.5485    0.0000 C   0  0  0  0  0  0  0  0  0
    7.2375    0.1360    0.0000 C   0  0  0  0  0  0  0  0  0
    6.5230    0.5485    0.0000 C   0  0  0  0  0  0  0  0  0
    6.5230    1.3735    0.0000 N   0  0  0  0  0  0  0  0  0
    7.2375    1.7860    0.0000 C   0  0  0  0  0  0  0  0  0
    7.9520    1.3735    0.0000 C   0  0  0  0  0  0  0  0  0
    5.8086    1.7860    0.0000 C   0  0  0  0  0  0  0  0  0
    5.0941    1.3735    0.0000 C   0  0  0  0  0  0  0  0  0
    5.0941    0.5485    0.0000 C   0  0  0  0  0  0  0  0  0
    4.3796    0.1360    0.0000 C   0  0  0  0  0  0  0  0  0
    4.3796   -0.6890    0.0000 O   0  0  0  0  0  0  0  0  0
    3.6652    0.5485    0.0000 C   0  0  0  0  0  0  0  0  0
    2.8805    0.2936    0.0000 C   0  0  0  0  0  0  0  0  0
    2.3956    0.9610    0.0000 C   0  0  0  0  0  0  0  0  0
    2.8805    1.6285    0.0000 O   0  0  0  0  0  0  0  0  0
    3.6652    1.3735    0.0000 C   0  0  0  0  0  0  0  0  0
    4.3796    1.7860    0.0000 C   0  0  0  0  0  0  0  0  0
    1.5706    0.9610    0.0000 C   0  0  0  0  0  0  0  0  0
    1.1581    0.2466    0.0000 C   0  0  0  0  0  0  0  0  0
    0.3331    0.2466    0.0000 C   0  0  0  0  0  0  0  0  0
   -0.0794    0.9610    0.0000 C   0  0  0  0  0  0  0  0  0
    0.3331    1.6755    0.0000 C   0  0  0  0  0  0  0  0  0
    1.1581    1.6755    0.0000 C   0  0  0  0  0  0  0  0  0
  1  2  1  0  0  0  0
  2  3  4  0  0  0  0
  2  7  4  0  0  0  0
  3  4  4  0  0  0  0
  4  5  4  0  0  0  0
  5  6  4  0  0  0  0
  5  8  1  0  0  0  0
  6  7  4  0  0  0  0
  8  9  2  0  0  0  0
  8 10  1  0  0  0  0
 10 11  1  0  0  0  0
 10 15  1  0  0  0  0
 11 12  1  0  0  0  0
 12 13  1  0  0  0  0
 13 14  1  0  0  0  0
 13 16  1  0  0  0  0
 14 15  1  0  0  0  0
 16 17  1  0  0  0  0
 17 18  1  0  0  0  0
 17 26  1  0  0  0  0
 18 19  1  0  0  0  0
 19 20  2  0  0  0  0
 19 21  1  0  0  0  0
 21 22  4  0  0  0  0
 21 25  4  0  0  0  0
 22 23  4  0  0  0  0
 23 24  4  0  0  0  0
 23 27  1  0  0  0  0
 24 25  4  0  0  0  0
 25 26  1  0  0  0  0
 27 28  4  0  0  0  0
 27 32  4  0  0  0  0
 28 29  4  0  0  0  0
 29 30  4  0  0  0  0
 30 31  4  0  0  0  0
 31 32  4  0  0  0  0
M  END
>  <Name_Molregno>
470538

>  <5-HT2A>
7.76

>  <5-HT2C>
5

>  <DOPAMINE D2>
5

$$$$
470539
  Marvin  02231216192D 0   1.00000     0.00000     0

 32 35  0  0  1  0  0  0  0  0999 V2000
   11.3787    1.9045    0.0000 F   0  0  0  0  0  0  0  0  0
   10.6642    1.4920    0.0000 C   0  0  0  0  0  0  0  0  0
   10.6642    0.6670    0.0000 C   0  0  0  0  0  0  0  0  0
    9.9497    0.2545    0.0000 C   0  0  0  0  0  0  0  0  0
    9.2353    0.6670    0.0000 C   0  0  0  0  0  0  0  0  0
    9.2353    1.4920    0.0000 C   0  0  0  0  0  0  0  0  0
    9.9497    1.9045    0.0000 C   0  0  0  0  0  0  0  0  0
    8.5208    0.2545    0.0000 C   0  0  0  0  0  0  0  0  0
    8.5208   -0.5705    0.0000 O   0  0  0  0  0  0  0  0  0
    7.8063    0.6670    0.0000 C   0  0  0  0  0  0  0  0  0
    7.0918    0.2545    0.0000 C   0  0  0  0  0  0  0  0  0
    6.3774    0.6670    0.0000 C   0  0  0  0  0  0  0  0  0
    6.3774    1.4920    0.0000 N   0  0  0  0  0  0  0  0  0
    7.0918    1.9045    0.0000 C   0  0  0  0  0  0  0  0  0
    7.8063    1.4920    0.0000 C   0  0  0  0  0  0  0  0  0
    5.6629    1.9045    0.0000 C   0  0  0  0  0  0  0  0  0
    4.9484    1.4920    0.0000 C   0  0  0  0  0  0  0  0  0
    4.9484    0.6670    0.0000 C   0  0  0  0  0  0  0  0  0
    4.2340    0.2545    0.0000 C   0  0  0  0  0  0  0  0  0
    4.2340   -0.5705    0.0000 O   0  0  0  0  0  0  0  0  0
    3.5195    0.6670    0.0000 C   0  0  0  0  0  0  0  0  0
    3.5195    1.4920    0.0000 C   0  0  0  0  0  0  0  0  0
    2.7349    1.7469    0.0000 O   0  0  0  0  0  0  0  0  0
    2.2499    1.0795    0.0000 C   0  0  0  0  0  0  0  0  0
    1.4249    1.0795    0.0000 C   0  0  0  0  0  0  0  0  0
    1.0124    0.3650    0.0000 O   0  0  0  0  0  0  0  0  0
    0.1874    0.3650    0.0000 C   0  0  0  0  0  0  0  0  0
   -0.2251   -0.3495    0.0000 C   0  0  0  0  0  0  0  0  0
    1.0124    1.7940    0.0000 O   0  0  0  0  0  0  0  0  0
    2.7349    0.4121    0.0000 C   0  0  0  0  0  0  0  0  0
    2.4799   -0.3726    0.0000 C   0  0  0  0  0  0  0  0  0
    4.2340    1.9045    0.0000 C   0  0  0  0  0  0  0  0  0
  1  2  1  0  0  0  0
  2  3  4  0  0  0  0
  2  7  4  0  0  0  0
  3  4  4  0  0  0  0
  4  5  4  0  0  0  0
  5  6  4  0  0  0  0
  5  8  1  0  0  0  0
  6  7  4  0  0  0  0
  8  9  2  0  0  0  0
  8 10  1  0  0  0  0
 10 11  1  0  0  0  0
 10 15  1  0  0  0  0
 11 12  1  0  0  0  0
 12 13  1  0  0  0  0
 13 14  1  0  0  0  0
 13 16  1  0  0  0  0
 14 15  1  0  0  0  0
 16 17  1  0  0  0  0
 17 18  1  0  0  0  0
 17 32  1  0  0  0  0
 18 19  1  0  0  0  0
 19 20  2  0  0  0  0
 19 21  1  0  0  0  0
 21 22  4  0  0  0  0
 21 30  4  0  0  0  0
 22 23  4  0  0  0  0
 22 32  1  0  0  0  0
 23 24  4  0  0  0  0
 24 25  1  0  0  0  0
 24 30  4  0  0  0  0
 25 26  1  0  0  0  0
 25 29  2  0  0  0  0
 26 27  1  0  0  0  0
 27 28  1  0  0  0  0
 30 31  1  0  0  0  0
M  END
>  <Name_Molregno>
470539

>  <5-HT2A>
7.66

>  <5-HT2C>
5

>  <DOPAMINE D2>
5

$$$$
470540
  Marvin  02231216192D 0   1.00000     0.00000     0

 31 35  0  0  1  0  0  0  0  0999 V2000
    4.4121    4.7381    0.0000 F   0  0  0  0  0  0  0  0  0
    4.9641    4.1250    0.0000 C   0  0  0  0  0  0  0  0  0
    5.7711    4.2965    0.0000 C   0  0  0  0  0  0  0  0  0
    6.3231    3.6834    0.0000 C   0  0  0  0  0  0  0  0  0
    7.1481    3.6834    0.0000 O   0  0  0  0  0  0  0  0  0
    7.4031    2.8988    0.0000 N   0  0  0  0  0  0  0  0  0
    6.7356    2.4139    0.0000 C   0  0  0  0  0  0  0  0  0
    6.0682    2.8988    0.0000 C   0  0  0  0  0  0  0  0  0
    5.2612    2.7273    0.0000 C   0  0  0  0  0  0  0  0  0
    4.7092    3.3404    0.0000 C   0  0  0  0  0  0  0  0  0
    6.7356    1.5889    0.0000 C   0  0  0  0  0  0  0  0  0
    7.4501    1.1764    0.0000 C   0  0  0  0  0  0  0  0  0
    7.4501    0.3514    0.0000 C   0  0  0  0  0  0  0  0  0
    6.7356   -0.0611    0.0000 N   0  0  0  0  0  0  0  0  0
    6.0212    0.3514    0.0000 C   0  0  0  0  0  0  0  0  0
    6.0212    1.1764    0.0000 C   0  0  0  0  0  0  0  0  0
    6.7356   -0.8861    0.0000 C   0  0  0  0  0  0  0  0  0
    6.0212   -1.2986    0.0000 C   0  0  0  0  0  0  0  0  0
    6.0212   -2.1236    0.0000 C   0  0  0  0  0  0  0  0  0
    5.3067   -2.5361    0.0000 C   0  0  0  0  0  0  0  0  0
    5.3067   -3.3611    0.0000 O   0  0  0  0  0  0  0  0  0
    4.5922   -2.1236    0.0000 C   0  0  0  0  0  0  0  0  0
    4.5922   -1.2986    0.0000 C   0  0  0  0  0  0  0  0  0
    3.8076   -1.0437    0.0000 O   0  0  0  0  0  0  0  0  0
    3.3227   -1.7111    0.0000 C   0  0  0  0  0  0  0  0  0
    3.8076   -2.3786    0.0000 C   0  0  0  0  0  0  0  0  0
    3.5527   -3.1632    0.0000 C   0  0  0  0  0  0  0  0  0
    2.7457   -3.3347    0.0000 O   0  0  0  0  0  0  0  0  0
    2.4907   -4.1193    0.0000 C   0  0  0  0  0  0  0  0  0
    4.1047   -3.7763    0.0000 O   0  0  0  0  0  0  0  0  0
    5.3067   -0.8861    0.0000 C   0  0  0  0  0  0  0  0  0
  1  2  1  0  0  0  0
  2  3  4  0  0  0  0
  2 10  4  0  0  0  0
  3  4  4  0  0  0  0
  4  5  4  0  0  0  0
  4  8  4  0  0  0  0
  5  6  4  0  0  0  0
  6  7  4  0  0  0  0
  7  8  4  0  0  0  0
  7 11  1  0  0  0  0
  8  9  4  0  0  0  0
  9 10  4  0  0  0  0
 11 12  1  0  0  0  0
 11 16  1  0  0  0  0
 12 13  1  0  0  0  0
 13 14  1  0  0  0  0
 14 15  1  0  0  0  0
 14 17  1  0  0  0  0
 15 16  1  0  0  0  0
 17 18  1  0  0  0  0
 18 19  1  0  0  0  0
 18 31  1  0  0  0  0
 19 20  1  0  0  0  0
 20 21  2  0  0  0  0
 20 22  1  0  0  0  0
 22 23  4  0  0  0  0
 22 26  4  0  0  0  0
 23 24  4  0  0  0  0
 23 31  1  0  0  0  0
 24 25  4  0  0  0  0
 25 26  4  0  0  0  0
 26 27  1  0  0  0  0
 27 28  1  0  0  0  0
 27 30  2  0  0  0  0
 28 29  1  0  0  0  0
M  END
>  <Name_Molregno>
470540

>  <5-HT2A>
8.81

>  <5-HT2C>
5

>  <DOPAMINE D2>
7.07

$$$$
470541
  Marvin  02231216192D 0   1.00000     0.00000     0

 33 38  0  0  1  0  0  0  0  0999 V2000
   11.8277   -0.2930    0.0000 F   0  0  0  0  0  0  0  0  0
   11.0207   -0.4645    0.0000 C   0  0  0  0  0  0  0  0  0
   10.7657   -1.2491    0.0000 C   0  0  0  0  0  0  0  0  0
    9.9588   -1.4206    0.0000 C   0  0  0  0  0  0  0  0  0
    9.5463   -2.1351    0.0000 O   0  0  0  0  0  0  0  0  0
    8.7393   -1.9636    0.0000 N   0  0  0  0  0  0  0  0  0
    8.6531   -1.1431    0.0000 C   0  0  0  0  0  0  0  0  0
    9.4067   -0.8075    0.0000 C   0  0  0  0  0  0  0  0  0
    9.6617   -0.0229    0.0000 C   0  0  0  0  0  0  0  0  0
   10.4686    0.1486    0.0000 C   0  0  0  0  0  0  0  0  0
    7.9386   -0.7306    0.0000 C   0  0  0  0  0  0  0  0  0
    7.2241   -1.1431    0.0000 C   0  0  0  0  0  0  0  0  0
    6.5097   -0.7306    0.0000 C   0  0  0  0  0  0  0  0  0
    6.5097    0.0944    0.0000 N   0  0  0  0  0  0  0  0  0
    7.2241    0.5069    0.0000 C   0  0  0  0  0  0  0  0  0
    7.9386    0.0944    0.0000 C   0  0  0  0  0  0  0  0  0
    5.7952    0.5069    0.0000 C   0  0  0  0  0  0  0  0  0
    5.0807    0.0944    0.0000 C   0  0  0  0  0  0  0  0  0
    5.0807   -0.7306    0.0000 C   0  0  0  0  0  0  0  0  0
    4.3662   -1.1431    0.0000 C   0  0  0  0  0  0  0  0  0
    4.3662   -1.9681    0.0000 O   0  0  0  0  0  0  0  0  0
    3.6518   -0.7306    0.0000 C   0  0  0  0  0  0  0  0  0
    2.8671   -0.9855    0.0000 C   0  0  0  0  0  0  0  0  0
    2.3822   -0.3181    0.0000 C   0  0  0  0  0  0  0  0  0
    2.8671    0.3493    0.0000 O   0  0  0  0  0  0  0  0  0
    3.6518    0.0944    0.0000 C   0  0  0  0  0  0  0  0  0
    4.3662    0.5069    0.0000 C   0  0  0  0  0  0  0  0  0
    1.5572   -0.3181    0.0000 C   0  0  0  0  0  0  0  0  0
    1.1447   -1.0326    0.0000 C   0  0  0  0  0  0  0  0  0
    0.3197   -1.0326    0.0000 C   0  0  0  0  0  0  0  0  0
   -0.0928   -0.3181    0.0000 C   0  0  0  0  0  0  0  0  0
    0.3197    0.3964    0.0000 C   0  0  0  0  0  0  0  0  0
    1.1447    0.3964    0.0000 C   0  0  0  0  0  0  0  0  0
  1  2  1  0  0  0  0
  2  3  4  0  0  0  0
  2 10  4  0  0  0  0
  3  4  4  0  0  0  0
  4  5  4  0  0  0  0
  4  8  4  0  0  0  0
  5  6  4  0  0  0  0
  6  7  4  0  0  0  0
  7  8  4  0  0  0  0
  7 11  1  0  0  0  0
  8  9  4  0  0  0  0
  9 10  4  0  0  0  0
 11 12  1  0  0  0  0
 11 16  1  0  0  0  0
 12 13  1  0  0  0  0
 13 14  1  0  0  0  0
 14 15  1  0  0  0  0
 14 17  1  0  0  0  0
 15 16  1  0  0  0  0
 17 18  1  0  0  0  0
 18 19  1  0  0  0  0
 18 27  1  0  0  0  0
 19 20  1  0  0  0  0
 20 21  2  0  0  0  0
 20 22  1  0  0  0  0
 22 23  4  0  0  0  0
 22 26  4  0  0  0  0
 23 24  4  0  0  0  0
 24 25  4  0  0  0  0
 24 28  1  0  0  0  0
 25 26  4  0  0  0  0
 26 27  1  0  0  0  0
 28 29  4  0  0  0  0
 28 33  4  0  0  0  0
 29 30  4  0  0  0  0
 30 31  4  0  0  0  0
 31 32  4  0  0  0  0
 32 33  4  0  0  0  0
M  END
>  <Name_Molregno>
470541

>  <5-HT2A>
8.16

>  <5-HT2C>
5.48

>  <DOPAMINE D2>
7.92

$$$$
470600
  Marvin  02231216192D 0   1.00000     0.00000     0

 33 37  0  0  1  0  0  0  0  0999 V2000
   11.6783   -0.2945    0.0000 F   0  0  0  0  0  0  0  0  0
   10.8714   -0.4661    0.0000 C   0  0  0  0  0  0  0  0  0
   10.6164   -1.2507    0.0000 C   0  0  0  0  0  0  0  0  0
    9.8095   -1.4222    0.0000 C   0  0  0  0  0  0  0  0  0
    9.3970   -2.1367    0.0000 O   0  0  0  0  0  0  0  0  0
    8.5900   -1.9651    0.0000 N   0  0  0  0  0  0  0  0  0
    8.5038   -1.1447    0.0000 C   0  0  0  0  0  0  0  0  0
    9.2574   -0.8091    0.0000 C   0  0  0  0  0  0  0  0  0
    9.5124   -0.0245    0.0000 C   0  0  0  0  0  0  0  0  0
   10.3193    0.1470    0.0000 C   0  0  0  0  0  0  0  0  0
    7.7893   -0.7322    0.0000 C   0  0  0  0  0  0  0  0  0
    7.0748   -1.1447    0.0000 C   0  0  0  0  0  0  0  0  0
    6.3603   -0.7322    0.0000 C   0  0  0  0  0  0  0  0  0
    6.3603    0.0928    0.0000 N   0  0  0  0  0  0  0  0  0
    7.0748    0.5053    0.0000 C   0  0  0  0  0  0  0  0  0
    7.7893    0.0928    0.0000 C   0  0  0  0  0  0  0  0  0
    5.6459    0.5053    0.0000 C   0  0  0  0  0  0  0  0  0
    4.9314    0.0928    0.0000 C   0  0  0  0  0  0  0  0  0
    4.9314   -0.7322    0.0000 C   0  0  0  0  0  0  0  0  0
    4.2169   -1.1447    0.0000 C   0  0  0  0  0  0  0  0  0
    4.2169   -1.9697    0.0000 O   0  0  0  0  0  0  0  0  0
    3.5025   -0.7322    0.0000 C   0  0  0  0  0  0  0  0  0
    3.5025    0.0928    0.0000 C   0  0  0  0  0  0  0  0  0
    2.7178    0.3478    0.0000 O   0  0  0  0  0  0  0  0  0
    2.2329   -0.3197    0.0000 C   0  0  0  0  0  0  0  0  0
    1.4079   -0.3197    0.0000 C   0  0  0  0  0  0  0  0  0
    0.9954   -1.0341    0.0000 O   0  0  0  0  0  0  0  0  0
    0.1704   -1.0341    0.0000 C   0  0  0  0  0  0  0  0  0
   -0.2421   -1.7486    0.0000 C   0  0  0  0  0  0  0  0  0
    0.9954    0.3948    0.0000 O   0  0  0  0  0  0  0  0  0
    2.7178   -0.9871    0.0000 C   0  0  0  0  0  0  0  0  0
    2.4629   -1.7717    0.0000 C   0  0  0  0  0  0  0  0  0
    4.2169    0.5053    0.0000 C   0  0  0  0  0  0  0  0  0
  1  2  1  0  0  0  0
  2  3  4  0  0  0  0
  2 10  4  0  0  0  0
  3  4  4  0  0  0  0
  4  5  4  0  0  0  0
  4  8  4  0  0  0  0
  5  6  4  0  0  0  0
  6  7  4  0  0  0  0
  7  8  4  0  0  0  0
  7 11  1  0  0  0  0
  8  9  4  0  0  0  0
  9 10  4  0  0  0  0
 11 12  1  0  0  0  0
 11 16  1  0  0  0  0
 12 13  1  0  0  0  0
 13 14  1  0  0  0  0
 14 15  1  0  0  0  0
 14 17  1  0  0  0  0
 15 16  1  0  0  0  0
 17 18  1  0  0  0  0
 18 19  1  0  0  0  0
 18 33  1  0  0  0  0
 19 20  1  0  0  0  0
 20 21  2  0  0  0  0
 20 22  1  0  0  0  0
 22 23  4  0  0  0  0
 22 31  4  0  0  0  0
 23 24  4  0  0  0  0
 23 33  1  0  0  0  0
 24 25  4  0  0  0  0
 25 26  1  0  0  0  0
 25 31  4  0  0  0  0
 26 27  1  0  0  0  0
 26 30  2  0  0  0  0
 27 28  1  0  0  0  0
 28 29  1  0  0  0  0
 31 32  1  0  0  0  0
M  END
>  <Name_Molregno>
470600

>  <5-HT2A>
8.08

>  <5-HT2C>
5

>  <DOPAMINE D2>
6.67

$$$$
470601
  Marvin  02231216192D 0   1.00000     0.00000     0

 26 29  0  0  1  0  0  0  0  0999 V2000
    9.2715    1.8322    0.0000 F   0  0  0  0  0  0  0  0  0
    8.5570    1.4197    0.0000 C   0  0  0  0  0  0  0  0  0
    8.5570    0.5947    0.0000 C   0  0  0  0  0  0  0  0  0
    7.8425    0.1822    0.0000 C   0  0  0  0  0  0  0  0  0
    7.1280    0.5947    0.0000 C   0  0  0  0  0  0  0  0  0
    7.1280    1.4197    0.0000 C   0  0  0  0  0  0  0  0  0
    7.8425    1.8322    0.0000 C   0  0  0  0  0  0  0  0  0
    6.4136    0.1822    0.0000 C   0  0  0  0  0  0  0  0  0
    6.4136   -0.6428    0.0000 O   0  0  0  0  0  0  0  0  0
    5.6991    0.5947    0.0000 N   0  0  0  0  0  0  0  0  0
    4.9846    0.1822    0.0000 C   0  0  0  0  0  0  0  0  0
    4.2702    0.5947    0.0000 C   0  0  0  0  0  0  0  0  0
    4.2702    1.4197    0.0000 N   0  0  0  0  0  0  0  0  0
    4.9846    1.8322    0.0000 C   0  0  0  0  0  0  0  0  0
    5.6991    1.4197    0.0000 C   0  0  0  0  0  0  0  0  0
    3.5557    1.8322    0.0000 C   0  0  0  0  0  0  0  0  0
    2.8412    1.4197    0.0000 C   0  0  0  0  0  0  0  0  0
    2.8412    0.5947    0.0000 C   0  0  0  0  0  0  0  0  0
    2.1267    0.1822    0.0000 C   0  0  0  0  0  0  0  0  0
    2.1267   -0.6428    0.0000 O   0  0  0  0  0  0  0  0  0
    1.4123    0.5947    0.0000 C   0  0  0  0  0  0  0  0  0
    1.4123    1.4197    0.0000 C   0  0  0  0  0  0  0  0  0
    0.6277    1.6746    0.0000 O   0  0  0  0  0  0  0  0  0
    0.1427    1.0072    0.0000 C   0  0  0  0  0  0  0  0  0
    0.6277    0.3397    0.0000 C   0  0  0  0  0  0  0  0  0
    2.1267    1.8322    0.0000 C   0  0  0  0  0  0  0  0  0
  1  2  1  0  0  0  0
  2  3  4  0  0  0  0
  2  7  4  0  0  0  0
  3  4  4  0  0  0  0
  4  5  4  0  0  0  0
  5  6  4  0  0  0  0
  5  8  1  0  0  0  0
  6  7  4  0  0  0  0
  8  9  2  0  0  0  0
  8 10  1  0  0  0  0
 10 11  1  0  0  0  0
 10 15  1  0  0  0  0
 11 12  1  0  0  0  0
 12 13  1  0  0  0  0
 13 14  1  0  0  0  0
 13 16  1  0  0  0  0
 14 15  1  0  0  0  0
 16 17  1  0  0  0  0
 17 18  1  0  0  0  0
 17 26  1  0  0  0  0
 18 19  1  0  0  0  0
 19 20  2  0  0  0  0
 19 21  1  0  0  0  0
 21 22  4  0  0  0  0
 21 25  4  0  0  0  0
 22 23  4  0  0  0  0
 22 26  1  0  0  0  0
 23 24  4  0  0  0  0
 24 25  4  0  0  0  0
M  END
>  <Name_Molregno>
470601

>  <5-HT2A>
5.88

>  <5-HT2C>
5

>  <DOPAMINE D2>
5

$$$$
470977
  Marvin  02231216192D 0   1.00000     0.00000     0

 32 35  0  0  1  0  0  0  0  0999 V2000
    3.7862    5.6117    0.0000 Cl  0  0  0  0  0  0  0  0  0
    3.7862    4.7867    0.0000 C   0  0  0  0  0  0  0  0  0
    4.5007    4.3742    0.0000 C   0  0  0  0  0  0  0  0  0
    4.5007    3.5492    0.0000 C   0  0  0  0  0  0  0  0  0
    3.7862    3.1367    0.0000 C   0  0  0  0  0  0  0  0  0
    3.0717    3.5492    0.0000 C   0  0  0  0  0  0  0  0  0
    3.0717    4.3742    0.0000 C   0  0  0  0  0  0  0  0  0
    3.7862    2.3117    0.0000 C   0  0  0  0  0  0  0  0  0
    4.4536    1.8268    0.0000 N   0  0  0  0  0  0  0  0  0
    4.1987    1.0422    0.0000 N   0  0  0  0  0  0  0  0  0
    3.3737    1.0422    0.0000 C   0  0  0  0  0  0  0  0  0
    3.1188    1.8268    0.0000 C   0  0  0  0  0  0  0  0  0
    2.3341    2.0817    0.0000 C   0  0  0  0  0  0  0  0  0
    1.7211    1.5297    0.0000 C   0  0  0  0  0  0  0  0  0
    0.9364    1.7846    0.0000 C   0  0  0  0  0  0  0  0  0
    0.7649    2.5916    0.0000 C   0  0  0  0  0  0  0  0  0
    1.3780    3.1436    0.0000 C   0  0  0  0  0  0  0  0  0
    2.1626    2.8887    0.0000 C   0  0  0  0  0  0  0  0  0
    4.6836    0.3747    0.0000 C   0  0  0  0  0  0  0  0  0
    5.5041    0.4610    0.0000 N   0  0  0  0  0  0  0  0  0
    5.9890   -0.2065    0.0000 S   0  0  0  0  0  0  0  0  0
    5.3216   -0.6914    0.0000 O   0  0  0  0  0  0  0  0  0
    6.6565    0.2785    0.0000 O   0  0  0  0  0  0  0  0  0
    6.4740   -0.8739    0.0000 C   0  0  0  0  0  0  0  0  0
    7.2944   -0.7877    0.0000 C   0  0  0  0  0  0  0  0  0
    7.7794   -1.4551    0.0000 C   0  0  0  0  0  0  0  0  0
    7.4438   -2.2088    0.0000 C   0  0  0  0  0  0  0  0  0
    6.6233   -2.2950    0.0000 C   0  0  0  0  0  0  0  0  0
    6.1384   -1.6276    0.0000 C   0  0  0  0  0  0  0  0  0
    7.9287   -2.8762    0.0000 C   0  0  0  0  0  0  0  0  0
    8.4136   -3.5437    0.0000 N   0  0  0  0  0  0  0  0  0
    4.3481   -0.3789    0.0000 N   0  0  0  0  0  0  0  0  0
  1  2  1  0  0  0  0
  2  3  4  0  0  0  0
  2  7  4  0  0  0  0
  3  4  4  0  0  0  0
  4  5  4  0  0  0  0
  5  6  4  0  0  0  0
  5  8  1  0  0  0  0
  6  7  4  0  0  0  0
  8  9  2  0  0  0  0
  8 12  1  0  0  0  0
  9 10  1  0  0  0  0
 10 11  1  0  0  0  0
 10 19  1  0  0  0  0
 11 12  1  0  0  0  0
 12 13  1  0  0  0  0
 13 14  4  0  0  0  0
 13 18  4  0  0  0  0
 14 15  4  0  0  0  0
 15 16  4  0  0  0  0
 16 17  4  0  0  0  0
 17 18  4  0  0  0  0
 19 20  2  0  0  0  0
 19 32  1  0  0  0  0
 20 21  1  0  0  0  0
 21 22  2  0  0  0  0
 21 23  2  0  0  0  0
 21 24  1  0  0  0  0
 24 25  4  0  0  0  0
 24 29  4  0  0  0  0
 25 26  4  0  0  0  0
 26 27  4  0  0  0  0
 27 28  4  0  0  0  0
 27 30  1  0  0  0  0
 28 29  4  0  0  0  0
 30 31  3  0  0  0  0
M  END
>  <Name_Molregno>
470977

>  <5-HT2A>
5.11

>  <HISTAMINE H2>
5

>  <HISTAMINE H3>
5

$$$$
473109
  Marvin  02231216192D 0   1.00000     0.00000     0

 21 22  0  0  1  0  0  0  0  0999 V2000
    6.3079    1.6156    0.0000 F   0  0  0  0  0  0  0  0  0
    5.5934    1.2031    0.0000 C   0  0  0  0  0  0  0  0  0
    5.1809    1.9176    0.0000 F   0  0  0  0  0  0  0  0  0
    6.0059    0.4887    0.0000 F   0  0  0  0  0  0  0  0  0
    4.8790    0.7906    0.0000 C   0  0  0  0  0  0  0  0  0
    4.8790   -0.0344    0.0000 C   0  0  0  0  0  0  0  0  0
    4.1645   -0.4469    0.0000 C   0  0  0  0  0  0  0  0  0
    3.4500   -0.0344    0.0000 C   0  0  0  0  0  0  0  0  0
    2.7355   -0.4469    0.0000 O   0  0  0  0  0  0  0  0  0
    2.7355   -1.2719    0.0000 C   0  0  0  0  0  0  0  0  0
    3.4500   -1.6844    0.0000 C   0  0  0  0  0  0  0  0  0
    4.1645   -1.2719    0.0000 C   0  0  0  0  0  0  0  0  0
    4.8790   -1.6844    0.0000 N   0  0  0  0  0  0  0  0  0
    2.0211   -1.6844    0.0000 C   0  0  0  0  0  0  0  0  0
    2.0211   -2.5094    0.0000 C   0  0  0  0  0  0  0  0  0
    1.3066   -2.9219    0.0000 C   0  0  0  0  0  0  0  0  0
    0.5921   -2.5094    0.0000 C   0  0  0  0  0  0  0  0  0
    0.5921   -1.6844    0.0000 C   0  0  0  0  0  0  0  0  0
    1.3066   -1.2719    0.0000 C   0  0  0  0  0  0  0  0  0
    3.4500    0.7906    0.0000 C   0  0  0  0  0  0  0  0  0
    4.1645    1.2031    0.0000 C   0  0  0  0  0  0  0  0  0
  1  2  1  0  0  0  0
  2  3  1  0  0  0  0
  2  4  1  0  0  0  0
  2  5  1  0  0  0  0
  5  6  4  0  0  0  0
  5 21  4  0  0  0  0
  6  7  4  0  0  0  0
  7  8  4  0  0  0  0
  8  9  1  0  0  0  0
  8 20  4  0  0  0  0
  9 10  1  0  0  0  0
 10 11  1  0  0  0  0
 10 14  1  0  0  0  0
 11 12  1  0  0  0  0
 12 13  1  0  0  0  0
 14 15  4  0  0  0  0
 14 19  4  0  0  0  0
 15 16  4  0  0  0  0
 16 17  4  0  0  0  0
 17 18  4  0  0  0  0
 18 19  4  0  0  0  0
 20 21  4  0  0  0  0
M  END
>  <Name_Molregno>
473109

>  <5-HT1A>
5

>  <5-HT2A>
6.53

>  <5-HT2C>
7.04

>  <DOPAMINE D2>
5

>  <Dopamine transporter>
5.59

>  <HISTAMINE H1>
5

>  <Muscarinic acetylcholine receptor M1>
5.92

>  <Muscarinic acetylcholine receptor M2>
5.34

>  <Muscarinic acetylcholine receptor M3>
6.12

>  <Muscarinic acetylcholine receptor M4>
5.59

>  <Muscarinic acetylcholine receptor M5>
5.66

>  <Norepinephrine transporter>
5.35

>  <Serotonin transporter>
7.79

$$$$
476087
  Marvin  02231216192D 0   1.00000     0.00000     0

 13 14  0  0  1  0  0  0  0  0999 V2000
   -1.2279   -1.3612    0.0000 Cl  0  0  0  0  0  0  0  0  0
   -0.5135   -0.9487    0.0000 C   0  0  0  0  0  0  0  0  0
   -0.5135   -0.1237    0.0000 C   0  0  0  0  0  0  0  0  0
    0.2010    0.2888    0.0000 C   0  0  0  0  0  0  0  0  0
    0.2010    1.1138    0.0000 F   0  0  0  0  0  0  0  0  0
    0.9155   -0.1237    0.0000 C   0  0  0  0  0  0  0  0  0
    0.9155   -0.9487    0.0000 C   0  0  0  0  0  0  0  0  0
    0.2010   -1.3612    0.0000 C   0  0  0  0  0  0  0  0  0
    0.2010   -2.1862    0.0000 C   0  0  0  0  0  0  0  0  0
    0.6135   -2.9007    0.0000 C   0  0  0  0  0  0  0  0  0
   -0.2115   -2.9007    0.0000 C   0  0  0  0  0  0  0  0  0
   -0.9260   -3.3132    0.0000 C   0  0  0  0  0  0  0  0  0
   -0.9260   -4.1382    0.0000 N   0  0  0  0  0  0  0  0  0
  1  2  1  0  0  0  0
  2  3  4  0  0  0  0
  2  8  4  0  0  0  0
  3  4  4  0  0  0  0
  4  5  1  0  0  0  0
  4  6  4  0  0  0  0
  6  7  4  0  0  0  0
  7  8  4  0  0  0  0
  8  9  1  0  0  0  0
  9 10  1  0  0  0  0
  9 11  1  0  0  0  0
 10 11  1  0  0  0  0
 11 12  1  0  0  0  0
 12 13  1  0  0  0  0
M  END
>  <Name_Molregno>
476087

>  <5-HT2A>
6.6

$$$$
477102
  Marvin  02231216192D 0   1.00000     0.00000     0

 12 13  0  0  1  0  0  0  0  0999 V2000
   -1.4215   -1.1518    0.0000 Br  0  0  0  0  0  0  0  0  0
   -0.7070   -0.7393    0.0000 C   0  0  0  0  0  0  0  0  0
   -0.7070    0.0857    0.0000 C   0  0  0  0  0  0  0  0  0
    0.0075    0.4982    0.0000 C   0  0  0  0  0  0  0  0  0
    0.7220    0.0857    0.0000 C   0  0  0  0  0  0  0  0  0
    0.7220   -0.7393    0.0000 C   0  0  0  0  0  0  0  0  0
    0.0075   -1.1518    0.0000 C   0  0  0  0  0  0  0  0  0
    0.0075   -1.9768    0.0000 C   0  0  0  0  0  0  0  0  0
    0.4200   -2.6912    0.0000 C   0  0  0  0  0  0  0  0  0
   -0.4050   -2.6912    0.0000 C   0  0  0  0  0  0  0  0  0
   -1.1195   -3.1037    0.0000 C   0  0  0  0  0  0  0  0  0
   -1.1195   -3.9287    0.0000 N   0  0  0  0  0  0  0  0  0
  1  2  1  0  0  0  0
  2  3  4  0  0  0  0
  2  7  4  0  0  0  0
  3  4  4  0  0  0  0
  4  5  4  0  0  0  0
  5  6  4  0  0  0  0
  6  7  4  0  0  0  0
  7  8  1  0  0  0  0
  8  9  1  0  0  0  0
  8 10  1  0  0  0  0
  9 10  1  0  0  0  0
 10 11  1  0  0  0  0
 11 12  1  0  0  0  0
M  END
>  <Name_Molregno>
477102

>  <5-HT2A>
6.39

$$$$
477180
  Marvin  02231216192D 0   1.00000     0.00000     0

 12 13  0  0  1  0  0  0  0  0999 V2000
    4.4468    2.5774    0.0000 N   0  0  0  0  0  0  0  0  0
    3.7324    2.1649    0.0000 C   0  0  0  0  0  0  0  0  0
    3.7324    1.3399    0.0000 C   0  0  0  0  0  0  0  0  0
    4.1449    0.6254    0.0000 C   0  0  0  0  0  0  0  0  0
    3.3199    0.6254    0.0000 C   0  0  0  0  0  0  0  0  0
    2.6054    0.2129    0.0000 C   0  0  0  0  0  0  0  0  0
    2.6054   -0.6121    0.0000 C   0  0  0  0  0  0  0  0  0
    1.8909   -1.0246    0.0000 C   0  0  0  0  0  0  0  0  0
    1.1764   -0.6121    0.0000 C   0  0  0  0  0  0  0  0  0
    1.1764    0.2129    0.0000 C   0  0  0  0  0  0  0  0  0
    1.8909    0.6254    0.0000 C   0  0  0  0  0  0  0  0  0
    1.8909   -1.8496    0.0000 C   0  0  0  0  0  0  0  0  0
  1  2  1  0  0  0  0
  2  3  1  0  0  0  0
  3  4  1  0  0  0  0
  3  5  1  0  0  0  0
  4  5  1  0  0  0  0
  5  6  1  0  0  0  0
  6  7  4  0  0  0  0
  6 11  4  0  0  0  0
  7  8  4  0  0  0  0
  8  9  4  0  0  0  0
  8 12  1  0  0  0  0
  9 10  4  0  0  0  0
 10 11  4  0  0  0  0
M  END
>  <Name_Molregno>
477180

>  <5-HT2A>
5.73

$$$$
477184
  Marvin  02231216192D 0   1.00000     0.00000     0

 12 13  0  0  1  0  0  0  0  0999 V2000
    2.6975    2.4048    0.0000 F   0  0  0  0  0  0  0  0  0
    2.6975    1.5798    0.0000 C   0  0  0  0  0  0  0  0  0
    3.4119    1.1673    0.0000 C   0  0  0  0  0  0  0  0  0
    3.4119    0.3423    0.0000 C   0  0  0  0  0  0  0  0  0
    2.6975   -0.0702    0.0000 C   0  0  0  0  0  0  0  0  0
    1.9830    0.3423    0.0000 C   0  0  0  0  0  0  0  0  0
    1.9830    1.1673    0.0000 C   0  0  0  0  0  0  0  0  0
    2.6975   -0.8952    0.0000 C   0  0  0  0  0  0  0  0  0
    3.1100   -1.6097    0.0000 C   0  0  0  0  0  0  0  0  0
    2.2850   -1.6097    0.0000 C   0  0  0  0  0  0  0  0  0
    1.5705   -2.0222    0.0000 C   0  0  0  0  0  0  0  0  0
    1.5705   -2.8472    0.0000 N   0  0  0  0  0  0  0  0  0
  1  2  1  0  0  0  0
  2  3  4  0  0  0  0
  2  7  4  0  0  0  0
  3  4  4  0  0  0  0
  4  5  4  0  0  0  0
  5  6  4  0  0  0  0
  5  8  1  0  0  0  0
  6  7  4  0  0  0  0
  8  9  1  0  0  0  0
  8 10  1  0  0  0  0
  9 10  1  0  0  0  0
 10 11  1  0  0  0  0
 11 12  1  0  0  0  0
M  END
>  <Name_Molregno>
477184

>  <5-HT2A>
5.56

$$$$
485853
  Marvin  02231216192D 0   1.00000     0.00000     0

 34 38  0  0  0  0  0  0  0  0999 V2000
   -8.8078   -3.6971    0.0000 S   0  0  0  0  0  0  0  0  0
   -8.3953   -2.9826    0.0000 O   0  0  0  0  0  0  0  0  0
   -9.4752   -3.2122    0.0000 O   0  0  0  0  0  0  0  0  0
   -8.0541   -4.0326    0.0000 N   0  0  0  0  0  0  0  0  0
   -8.1403   -4.8531    0.0000 C   0  0  0  0  0  0  0  0  0
   -8.9473   -5.0247    0.0000 C   0  0  0  0  0  0  0  0  0
   -9.3598   -4.3102    0.0000 C   0  0  0  0  0  0  0  0  0
   -7.3396   -3.6201    0.0000 C   0  0  0  0  0  0  0  0  0
   -7.3396   -2.7951    0.0000 C   0  0  0  0  0  0  0  0  0
   -6.6252   -2.3826    0.0000 C   0  0  0  0  0  0  0  0  0
   -5.9107   -2.7951    0.0000 C   0  0  0  0  0  0  0  0  0
   -5.9107   -3.6201    0.0000 C   0  0  0  0  0  0  0  0  0
   -6.6252   -4.0326    0.0000 C   0  0  0  0  0  0  0  0  0
   -6.6252   -1.5576    0.0000 C   0  0  0  0  0  0  0  0  0
   -5.9107   -1.1451    0.0000 C   0  0  0  0  0  0  0  0  0
   -5.9107   -0.3201    0.0000 C   0  0  0  0  0  0  0  0  0
   -5.1962    0.0924    0.0000 C   0  0  0  0  0  0  0  0  0
   -4.4818   -0.3201    0.0000 N   0  0  0  0  0  0  0  0  0
   -4.4818   -1.1451    0.0000 C   0  0  0  0  0  0  0  0  0
   -5.1962   -1.5576    0.0000 C   0  0  0  0  0  0  0  0  0
   -3.7673    0.0924    0.0000 C   0  0  0  0  0  0  0  0  0
   -3.7673    0.9174    0.0000 C   0  0  0  0  0  0  0  0  0
   -3.0528    1.3299    0.0000 O   0  0  0  0  0  0  0  0  0
   -3.0528    2.1549    0.0000 C   0  0  0  0  0  0  0  0  0
   -2.3383    2.5674    0.0000 C   0  0  0  0  0  0  0  0  0
   -2.3383    3.3924    0.0000 C   0  0  0  0  0  0  0  0  0
   -1.6239    3.8049    0.0000 N   0  0  0  0  0  0  0  0  0
   -0.9094    3.3924    0.0000 C   0  0  0  0  0  0  0  0  0
   -0.9094    2.5674    0.0000 C   0  0  0  0  0  0  0  0  0
   -1.6239    2.1549    0.0000 C   0  0  0  0  0  0  0  0  0
   -0.1949    3.8049    0.0000 C   0  0  0  0  0  0  0  0  0
   -3.0528    3.8049    0.0000 C   0  0  0  0  0  0  0  0  0
   -3.7673    3.3924    0.0000 C   0  0  0  0  0  0  0  0  0
   -3.7673    2.5674    0.0000 C   0  0  0  0  0  0  0  0  0
  1  2  2  0  0  0  0
  1  3  2  0  0  0  0
  1  4  1  0  0  0  0
  1  7  1  0  0  0  0
  4  5  1  0  0  0  0
  4  8  1  0  0  0  0
  5  6  1  0  0  0  0
  6  7  1  0  0  0  0
  8  9  4  0  0  0  0
  8 13  4  0  0  0  0
  9 10  4  0  0  0  0
 10 11  4  0  0  0  0
 10 14  1  0  0  0  0
 11 12  4  0  0  0  0
 12 13  4  0  0  0  0
 14 15  1  0  0  0  0
 15 16  1  0  0  0  0
 15 20  1  0  0  0  0
 16 17  1  0  0  0  0
 17 18  1  0  0  0  0
 18 19  1  0  0  0  0
 18 21  1  0  0  0  0
 19 20  1  0  0  0  0
 21 22  1  0  0  0  0
 22 23  1  0  0  0  0
 23 24  1  0  0  0  0
 24 25  4  0  0  0  0
 24 34  4  0  0  0  0
 25 26  4  0  0  0  0
 25 30  4  0  0  0  0
 26 27  4  0  0  0  0
 26 32  4  0  0  0  0
 27 28  4  0  0  0  0
 28 29  4  0  0  0  0
 28 31  1  0  0  0  0
 29 30  4  0  0  0  0
 32 33  4  0  0  0  0
 33 34  4  0  0  0  0
M  END
>  <Name_Molregno>
485853

>  <5-HT1A>
8.1

>  <5-HT1B>
7.9

>  <5-HT1D>
8.8

>  <5-HT1E>
5

>  <5-HT2A>
5.2

>  <5-HT2C>
5.4

>  <5-HT5>
5.8

>  <5-HT6>
5.8

>  <5-HT7>
7.8

>  <Alpha-1B>
6.8

>  <Beta-2>
5.8

>  <DOPAMINE D2>
6.3

>  <Serotonin transporter>
6.4

$$$$
486945
  Marvin  02231216192D 0   1.00000     0.00000     0

 32 35  0  0  0  0  0  0  0  0999 V2000
    2.0504   -5.0180    0.0000 S   0  0  0  0  0  0  0  0  0
    2.0504   -5.8430    0.0000 O   0  0  0  0  0  0  0  0  0
    2.8754   -5.0180    0.0000 O   0  0  0  0  0  0  0  0  0
    2.0504   -4.1930    0.0000 N   0  0  0  0  0  0  0  0  0
    2.7649   -3.7805    0.0000 C   0  0  0  0  0  0  0  0  0
    2.7649   -2.9555    0.0000 C   0  0  0  0  0  0  0  0  0
    3.4793   -2.5430    0.0000 C   0  0  0  0  0  0  0  0  0
    4.1938   -2.9555    0.0000 C   0  0  0  0  0  0  0  0  0
    4.1938   -3.7805    0.0000 C   0  0  0  0  0  0  0  0  0
    3.4793   -4.1930    0.0000 C   0  0  0  0  0  0  0  0  0
    3.4793   -1.7180    0.0000 C   0  0  0  0  0  0  0  0  0
    4.1938   -1.3055    0.0000 C   0  0  0  0  0  0  0  0  0
    4.1938   -0.4805    0.0000 C   0  0  0  0  0  0  0  0  0
    4.9083   -0.0680    0.0000 C   0  0  0  0  0  0  0  0  0
    5.6228   -0.4805    0.0000 N   0  0  0  0  0  0  0  0  0
    5.6228   -1.3055    0.0000 C   0  0  0  0  0  0  0  0  0
    4.9083   -1.7180    0.0000 C   0  0  0  0  0  0  0  0  0
    6.3372   -0.0680    0.0000 C   0  0  0  0  0  0  0  0  0
    6.3372    0.7570    0.0000 C   0  0  0  0  0  0  0  0  0
    7.0517    1.1695    0.0000 O   0  0  0  0  0  0  0  0  0
    7.0517    1.9945    0.0000 C   0  0  0  0  0  0  0  0  0
    7.7662    2.4070    0.0000 C   0  0  0  0  0  0  0  0  0
    7.7662    3.2320    0.0000 C   0  0  0  0  0  0  0  0  0
    8.4806    3.6445    0.0000 N   0  0  0  0  0  0  0  0  0
    9.1951    3.2320    0.0000 C   0  0  0  0  0  0  0  0  0
    9.1951    2.4070    0.0000 C   0  0  0  0  0  0  0  0  0
    8.4806    1.9945    0.0000 C   0  0  0  0  0  0  0  0  0
    9.9096    3.6445    0.0000 C   0  0  0  0  0  0  0  0  0
    7.0517    3.6445    0.0000 C   0  0  0  0  0  0  0  0  0
    6.3372    3.2320    0.0000 C   0  0  0  0  0  0  0  0  0
    6.3372    2.4070    0.0000 C   0  0  0  0  0  0  0  0  0
    1.2254   -5.0180    0.0000 C   0  0  0  0  0  0  0  0  0
  1  2  2  0  0  0  0
  1  3  2  0  0  0  0
  1  4  1  0  0  0  0
  1 32  1  0  0  0  0
  4  5  1  0  0  0  0
  5  6  4  0  0  0  0
  5 10  4  0  0  0  0
  6  7  4  0  0  0  0
  7  8  4  0  0  0  0
  7 11  1  0  0  0  0
  8  9  4  0  0  0  0
  9 10  4  0  0  0  0
 11 12  1  0  0  0  0
 12 13  1  0  0  0  0
 12 17  1  0  0  0  0
 13 14  1  0  0  0  0
 14 15  1  0  0  0  0
 15 16  1  0  0  0  0
 15 18  1  0  0  0  0
 16 17  1  0  0  0  0
 18 19  1  0  0  0  0
 19 20  1  0  0  0  0
 20 21  1  0  0  0  0
 21 22  4  0  0  0  0
 21 31  4  0  0  0  0
 22 23  4  0  0  0  0
 22 27  4  0  0  0  0
 23 24  4  0  0  0  0
 23 29  4  0  0  0  0
 24 25  4  0  0  0  0
 25 26  4  0  0  0  0
 25 28  1  0  0  0  0
 26 27  4  0  0  0  0
 29 30  4  0  0  0  0
 30 31  4  0  0  0  0
M  END
>  <Name_Molregno>
486945

>  <5-HT1A>
8.6

>  <5-HT1B>
8.7

>  <5-HT1D>
9.3

>  <5-HT1E>
5.6

>  <5-HT2A>
5.6

>  <5-HT2C>
6

>  <5-HT5>
5.9

>  <5-HT6>
5

>  <5-HT7>
7.7

>  <Alpha-1B>
6.7

>  <Beta-2>
6.3

>  <DOPAMINE D2>
7.2

>  <Serotonin transporter>
5.8

$$$$
489873
  Marvin  02231216192D 0   1.00000     0.00000     0

 25 27  0  0  0  0  0  0  0  0999 V2000
    0.2794    2.6940    0.0000 Cl  0  0  0  0  0  0  0  0  0
    0.9939    2.2815    0.0000 C   0  0  0  0  0  0  0  0  0
    1.7084    2.6940    0.0000 C   0  0  0  0  0  0  0  0  0
    2.4228    2.2815    0.0000 C   0  0  0  0  0  0  0  0  0
    2.4228    1.4565    0.0000 C   0  0  0  0  0  0  0  0  0
    3.1373    1.0440    0.0000 N   0  0  0  0  0  0  0  0  0
    3.8518    1.4565    0.0000 C   0  0  0  0  0  0  0  0  0
    4.5663    1.0440    0.0000 C   0  0  0  0  0  0  0  0  0
    4.5663    0.2190    0.0000 N   0  0  0  0  0  0  0  0  0
    3.8518   -0.1935    0.0000 C   0  0  0  0  0  0  0  0  0
    3.1373    0.2190    0.0000 C   0  0  0  0  0  0  0  0  0
    5.2807   -0.1935    0.0000 C   0  0  0  0  0  0  0  0  0
    5.9952    0.2190    0.0000 C   0  0  0  0  0  0  0  0  0
    6.7097   -0.1935    0.0000 C   0  0  0  0  0  0  0  0  0
    7.4241    0.2190    0.0000 C   0  0  0  0  0  0  0  0  0
    7.4241    1.0440    0.0000 O   0  0  0  0  0  0  0  0  0
    8.1386   -0.1935    0.0000 C   0  0  0  0  0  0  0  0  0
    8.8531    0.2190    0.0000 C   0  0  0  0  0  0  0  0  0
    9.5676   -0.1935    0.0000 C   0  0  0  0  0  0  0  0  0
    9.5676   -1.0185    0.0000 C   0  0  0  0  0  0  0  0  0
   10.2820   -1.4310    0.0000 F   0  0  0  0  0  0  0  0  0
    8.8531   -1.4310    0.0000 C   0  0  0  0  0  0  0  0  0
    8.1386   -1.0185    0.0000 C   0  0  0  0  0  0  0  0  0
    1.7084    1.0440    0.0000 C   0  0  0  0  0  0  0  0  0
    0.9939    1.4565    0.0000 C   0  0  0  0  0  0  0  0  0
  1  2  1  0  0  0  0
  2  3  4  0  0  0  0
  2 25  4  0  0  0  0
  3  4  4  0  0  0  0
  4  5  4  0  0  0  0
  5  6  1  0  0  0  0
  5 24  4  0  0  0  0
  6  7  1  0  0  0  0
  6 11  1  0  0  0  0
  7  8  1  0  0  0  0
  8  9  1  0  0  0  0
  9 10  1  0  0  0  0
  9 12  1  0  0  0  0
 10 11  1  0  0  0  0
 12 13  1  0  0  0  0
 13 14  1  0  0  0  0
 14 15  1  0  0  0  0
 15 16  2  0  0  0  0
 15 17  1  0  0  0  0
 17 18  4  0  0  0  0
 17 23  4  0  0  0  0
 18 19  4  0  0  0  0
 19 20  4  0  0  0  0
 20 21  1  0  0  0  0
 20 22  4  0  0  0  0
 22 23  4  0  0  0  0
 24 25  4  0  0  0  0
M  END
>  <Name_Molregno>
489873

>  <5-HT1A>
7.04

>  <5-HT2A>
6.96

>  <5-HT2C>
5.45

>  <DOPAMINE D2>
6.6

>  <DOPAMINE D4>
7.77

>  <HISTAMINE H1>
6.8

$$$$
489941
  Marvin  02231216192D 0   1.00000     0.00000     0

 27 30  0  0  1  0  0  0  0  0999 V2000
    1.9851    3.9912    0.0000 F   0  0  0  0  0  0  0  0  0
    2.4077    3.2826    0.0000 C   0  0  0  0  0  0  0  0  0
    3.2326    3.2943    0.0000 C   0  0  0  0  0  0  0  0  0
    3.6552    2.5858    0.0000 C   0  0  0  0  0  0  0  0  0
    3.2529    1.8656    0.0000 C   0  0  0  0  0  0  0  0  0
    2.4280    1.8538    0.0000 C   0  0  0  0  0  0  0  0  0
    2.0054    2.5624    0.0000 C   0  0  0  0  0  0  0  0  0
    3.6755    1.1570    0.0000 C   0  0  0  0  0  0  0  0  0
    3.2732    0.4368    0.0000 O   0  0  0  0  0  0  0  0  0
    4.5004    1.1687    0.0000 C   0  0  0  0  0  0  0  0  0
    4.9230    0.4602    0.0000 C   0  0  0  0  0  0  0  0  0
    5.7480    0.4719    0.0000 C   0  0  0  0  0  0  0  0  0
    6.1706   -0.2366    0.0000 N   0  0  0  0  0  0  0  0  0
    6.7312   -0.6765    0.0000 C   0  0  0  0  0  0  0  0  0
    7.6600   -0.6610    0.0000 C   0  0  0  0  0  0  0  0  0
    7.7982   -1.4784    0.0000 C   0  0  0  0  0  0  0  0  0
    8.6173   -1.5767    0.0000 O   0  0  0  0  0  0  0  0  0
    7.2820   -1.0497    0.0000 C   0  0  0  0  0  0  0  0  0
    6.3103   -1.0497    0.0000 C   0  0  0  0  0  0  0  0  0
    5.7904   -1.7620    0.0000 C   0  0  0  0  0  0  0  0  0
    6.4107   -1.3851    0.0000 C   0  0  0  0  0  0  0  0  0
    7.4722   -2.2363    0.0000 C   0  0  0  0  0  0  0  0  0
    7.9655   -2.8975    0.0000 C   0  0  0  0  0  0  0  0  0
    7.6395   -3.6554    0.0000 C   0  0  0  0  0  0  0  0  0
    6.8202   -3.7520    0.0000 C   0  0  0  0  0  0  0  0  0
    6.3269   -3.0908    0.0000 C   0  0  0  0  0  0  0  0  0
    6.6529   -2.3329    0.0000 C   0  0  0  0  0  0  0  0  0
  1  2  1  0  0  0  0
  2  3  4  0  0  0  0
  2  7  4  0  0  0  0
  3  4  4  0  0  0  0
  4  5  4  0  0  0  0
  5  6  4  0  0  0  0
  5  8  1  0  0  0  0
  6  7  4  0  0  0  0
  8  9  2  0  0  0  0
  8 10  1  0  0  0  0
 10 11  1  0  0  0  0
 11 12  1  0  0  0  0
 12 13  1  0  0  0  0
 13 14  1  0  0  0  0
 13 19  1  0  0  0  0
 14 15  1  0  0  0  0
 14 21  1  0  0  0  0
 15 16  1  0  0  0  0
 16 17  1  0  0  0  0
 16 18  1  0  0  0  0
 16 22  1  0  0  0  0
 18 19  1  0  0  0  0
 19 20  1  0  0  0  0
 20 21  1  0  0  0  0
 22 23  4  0  0  0  0
 22 27  4  0  0  0  0
 23 24  4  0  0  0  0
 24 25  4  0  0  0  0
 25 26  4  0  0  0  0
 26 27  4  0  0  0  0
M  END
>  <Name_Molregno>
489941

>  <5-HT1A>
7.42

>  <5-HT2A>
7.91

>  <5-HT2C>
5

>  <DOPAMINE D2>
8.64

>  <DOPAMINE D4>
7.72

>  <HISTAMINE H1>
6.2

$$$$
490001
  Marvin  02231216192D 0   1.00000     0.00000     0

 26 28  0  0  0  0  0  0  0  0999 V2000
   -0.1047    1.0755    0.0000 Cl  0  0  0  0  0  0  0  0  0
    0.7180    1.0139    0.0000 C   0  0  0  0  0  0  0  0  0
    1.1827    1.6955    0.0000 C   0  0  0  0  0  0  0  0  0
    2.0054    1.6339    0.0000 C   0  0  0  0  0  0  0  0  0
    2.3634    0.8906    0.0000 C   0  0  0  0  0  0  0  0  0
    3.1860    0.8289    0.0000 N   0  0  0  0  0  0  0  0  0
    3.5985    1.5434    0.0000 C   0  0  0  0  0  0  0  0  0
    4.4143    1.6663    0.0000 C   0  0  0  0  0  0  0  0  0
    5.0191    1.1052    0.0000 C   0  0  0  0  0  0  0  0  0
    4.9574    0.2825    0.0000 N   0  0  0  0  0  0  0  0  0
    4.2758   -0.1822    0.0000 C   0  0  0  0  0  0  0  0  0
    3.4875    0.0609    0.0000 C   0  0  0  0  0  0  0  0  0
    5.6719   -0.1300    0.0000 C   0  0  0  0  0  0  0  0  0
    6.3864    0.2825    0.0000 C   0  0  0  0  0  0  0  0  0
    7.1009   -0.1300    0.0000 C   0  0  0  0  0  0  0  0  0
    7.8153    0.2825    0.0000 C   0  0  0  0  0  0  0  0  0
    7.8153    1.1075    0.0000 O   0  0  0  0  0  0  0  0  0
    8.5298   -0.1300    0.0000 C   0  0  0  0  0  0  0  0  0
    9.2443    0.2825    0.0000 C   0  0  0  0  0  0  0  0  0
    9.9587   -0.1300    0.0000 C   0  0  0  0  0  0  0  0  0
    9.9587   -0.9550    0.0000 C   0  0  0  0  0  0  0  0  0
   10.6732   -1.3675    0.0000 F   0  0  0  0  0  0  0  0  0
    9.2443   -1.3675    0.0000 C   0  0  0  0  0  0  0  0  0
    8.5298   -0.9550    0.0000 C   0  0  0  0  0  0  0  0  0
    1.8986    0.2089    0.0000 C   0  0  0  0  0  0  0  0  0
    1.0759    0.2706    0.0000 C   0  0  0  0  0  0  0  0  0
  1  2  1  0  0  0  0
  2  3  4  0  0  0  0
  2 26  4  0  0  0  0
  3  4  4  0  0  0  0
  4  5  4  0  0  0  0
  5  6  1  0  0  0  0
  5 25  4  0  0  0  0
  6  7  1  0  0  0  0
  6 12  1  0  0  0  0
  7  8  1  0  0  0  0
  8  9  1  0  0  0  0
  9 10  1  0  0  0  0
 10 11  1  0  0  0  0
 10 13  1  0  0  0  0
 11 12  1  0  0  0  0
 13 14  1  0  0  0  0
 14 15  1  0  0  0  0
 15 16  1  0  0  0  0
 16 17  2  0  0  0  0
 16 18  1  0  0  0  0
 18 19  4  0  0  0  0
 18 24  4  0  0  0  0
 19 20  4  0  0  0  0
 20 21  4  0  0  0  0
 21 22  1  0  0  0  0
 21 23  4  0  0  0  0
 23 24  4  0  0  0  0
 25 26  4  0  0  0  0
M  END
>  <Name_Molregno>
490001

>  <5-HT1A>
6.93

>  <5-HT2A>
7.63

>  <5-HT2C>
5.85

>  <5-HT6>
6.53

>  <DOPAMINE D1>
6.79

>  <DOPAMINE D2>
7.36

>  <DOPAMINE D3>
6.8

>  <DOPAMINE D4>
8.18

>  <Dopamine transporter>
5.94

>  <HISTAMINE H1>
6.72

>  <Muscarinic acetylcholine receptor M1>
6.06

>  <Serotonin transporter>
7.25

$$$$
490002
  Marvin  02231216192D 0   1.00000     0.00000     0

 28 31  0  0  1  0  0  0  0  0999 V2000
    2.5267   -4.2916    0.0000 Cl  0  0  0  0  0  0  0  0  0
    3.0577   -3.6602    0.0000 C   0  0  0  0  0  0  0  0  0
    2.7764   -2.8847    0.0000 C   0  0  0  0  0  0  0  0  0
    3.3075   -2.2533    0.0000 C   0  0  0  0  0  0  0  0  0
    4.1198   -2.3975    0.0000 C   0  0  0  0  0  0  0  0  0
    4.6508   -1.7661    0.0000 N   0  0  0  0  0  0  0  0  0
    5.4718   -1.9734    0.0000 C   0  0  0  0  0  0  0  0  0
    6.0885   -1.7178    0.0000 C   0  0  0  0  0  0  0  0  0
    6.0885   -0.4604    0.0000 N   0  0  0  0  0  0  0  0  0
    5.8763   -1.2409    0.0000 C   0  0  0  0  0  0  0  0  0
    6.7076   -1.6094    0.0000 C   0  0  0  0  0  0  0  0  0
    6.9098   -2.1415    0.0000 C   0  0  0  0  0  0  0  0  0
    5.0599   -1.0379    0.0000 C   0  0  0  0  0  0  0  0  0
    4.4405   -1.2946    0.0000 C   0  0  0  0  0  0  0  0  0
    6.1977    0.3573    0.0000 C   0  0  0  0  0  0  0  0  0
    5.5441    0.8607    0.0000 C   0  0  0  0  0  0  0  0  0
    5.6533    1.6785    0.0000 C   0  0  0  0  0  0  0  0  0
    4.9997    2.1819    0.0000 C   0  0  0  0  0  0  0  0  0
    4.2369    1.8676    0.0000 O   0  0  0  0  0  0  0  0  0
    5.1089    2.9996    0.0000 C   0  0  0  0  0  0  0  0  0
    4.4553    3.5031    0.0000 C   0  0  0  0  0  0  0  0  0
    4.5644    4.3208    0.0000 C   0  0  0  0  0  0  0  0  0
    5.3272    4.6351    0.0000 C   0  0  0  0  0  0  0  0  0
    5.4364    5.4529    0.0000 F   0  0  0  0  0  0  0  0  0
    5.9808    4.1317    0.0000 C   0  0  0  0  0  0  0  0  0
    5.8716    3.3140    0.0000 C   0  0  0  0  0  0  0  0  0
    4.4010   -3.1731    0.0000 C   0  0  0  0  0  0  0  0  0
    3.8700   -3.8044    0.0000 C   0  0  0  0  0  0  0  0  0
  1  2  1  0  0  0  0
  2  3  4  0  0  0  0
  2 28  4  0  0  0  0
  3  4  4  0  0  0  0
  4  5  4  0  0  0  0
  5  6  1  0  0  0  0
  5 27  4  0  0  0  0
  6  7  1  0  0  0  0
  6 14  1  0  0  0  0
  7  8  1  0  0  0  0
  8  9  1  0  0  0  0
  8 12  1  0  0  0  0
  9 10  1  0  0  0  0
  9 15  1  0  0  0  0
 10 11  1  0  0  0  0
 10 13  1  0  0  0  0
 11 12  1  0  0  0  0
 13 14  1  0  0  0  0
 15 16  1  0  0  0  0
 16 17  1  0  0  0  0
 17 18  1  0  0  0  0
 18 19  2  0  0  0  0
 18 20  1  0  0  0  0
 20 21  4  0  0  0  0
 20 26  4  0  0  0  0
 21 22  4  0  0  0  0
 22 23  4  0  0  0  0
 23 24  1  0  0  0  0
 23 25  4  0  0  0  0
 25 26  4  0  0  0  0
 27 28  4  0  0  0  0
M  END
>  <Name_Molregno>
490002

>  <5-HT1A>
5.63

>  <5-HT2A>
6.71

>  <5-HT2C>
5.45

>  <DOPAMINE D2>
6.75

>  <DOPAMINE D3>
6.26

>  <DOPAMINE D4>
7.38

>  <HISTAMINE H1>
5.99

$$$$
490754
  Marvin  02231216192D 0   1.00000     0.00000     0

 25 28  0  0  1  0  0  0  0  0999 V2000
   -0.3539   -0.7009    0.0000 O   0  0  0  0  0  0  0  0  0
    0.3606   -1.1134    0.0000 C   0  0  0  0  0  0  0  0  0
    1.0751   -0.7009    0.0000 O   0  0  0  0  0  0  0  0  0
    0.3606   -1.9384    0.0000 C   0  0  0  0  0  0  0  0  0
    1.0751   -2.3509    0.0000 C   0  0  0  0  0  0  0  0  0
   -0.3539    0.1241    0.0000 C   0  0  0  0  0  0  0  0  0
   -1.0684    0.5366    0.0000 C   0  0  0  0  0  0  0  0  0
   -1.0684    1.3616    0.0000 C   0  0  0  0  0  0  0  0  0
   -1.7828    1.7741    0.0000 C   0  0  0  0  0  0  0  0  0
   -2.4973    1.3616    0.0000 C   0  0  0  0  0  0  0  0  0
   -3.2118    1.7741    0.0000 N   0  0  0  0  0  0  0  0  0
   -3.9262    1.3616    0.0000 C   0  0  0  0  0  0  0  0  0
   -3.9262    0.5366    0.0000 C   0  0  0  0  0  0  0  0  0
   -3.2118    0.1241    0.0000 C   0  0  0  0  0  0  0  0  0
   -2.4973    0.5366    0.0000 C   0  0  0  0  0  0  0  0  0
   -1.7828    0.1241    0.0000 C   0  0  0  0  0  0  0  0  0
   -1.7828   -0.7009    0.0000 C   0  0  0  0  0  0  0  0  0
   -2.4973   -1.1134    0.0000 C   0  0  0  0  0  0  0  0  0
   -3.2118   -0.7009    0.0000 C   0  0  0  0  0  0  0  0  0
   -3.2118    2.5991    0.0000 C   0  0  0  0  0  0  0  0  0
   -3.9262    3.0116    0.0000 C   0  0  0  0  0  0  0  0  0
   -4.6407    2.5991    0.0000 C   0  0  0  0  0  0  0  0  0
   -0.3539    1.7741    0.0000 C   0  0  0  0  0  0  0  0  0
    0.3606    1.3616    0.0000 C   0  0  0  0  0  0  0  0  0
    0.3606    0.5366    0.0000 C   0  0  0  0  0  0  0  0  0
  1  2  1  0  0  0  0
  1  6  1  0  0  0  0
  2  3  2  0  0  0  0
  2  4  1  0  0  0  0
  4  5  1  0  0  0  0
  6  7  4  0  0  0  0
  6 25  4  0  0  0  0
  7  8  4  0  0  0  0
  7 16  1  0  0  0  0
  8  9  1  0  0  0  0
  8 23  4  0  0  0  0
  9 10  1  0  0  0  0
 10 11  1  0  0  0  0
 10 15  1  0  0  0  0
 11 12  1  0  0  0  0
 11 20  1  0  0  0  0
 12 13  1  0  0  0  0
 13 14  1  0  0  0  0
 14 15  4  0  0  0  0
 14 19  4  0  0  0  0
 15 16  4  0  0  0  0
 16 17  4  0  0  0  0
 17 18  4  0  0  0  0
 18 19  4  0  0  0  0
 20 21  1  0  0  0  0
 21 22  1  0  0  0  0
 23 24  4  0  0  0  0
 24 25  4  0  0  0  0
M  END
>  <Name_Molregno>
490754

>  <5-HT2A>
6.96

>  <DOPAMINE D1>
7.74

>  <DOPAMINE D2>
5

$$$$
490898
  Marvin  02231216192D 0   1.00000     0.00000     0

 26 29  0  0  1  0  0  0  0  0999 V2000
   -0.2864   -0.5736    0.0000 O   0  0  0  0  0  0  0  0  0
    0.4281   -0.9861    0.0000 C   0  0  0  0  0  0  0  0  0
    1.1425   -0.5736    0.0000 O   0  0  0  0  0  0  0  0  0
    0.4281   -1.8111    0.0000 C   0  0  0  0  0  0  0  0  0
    1.1425   -2.2236    0.0000 C   0  0  0  0  0  0  0  0  0
    1.1425   -3.0486    0.0000 C   0  0  0  0  0  0  0  0  0
   -0.2864    0.2514    0.0000 C   0  0  0  0  0  0  0  0  0
   -1.0009    0.6639    0.0000 C   0  0  0  0  0  0  0  0  0
   -1.0009    1.4889    0.0000 C   0  0  0  0  0  0  0  0  0
   -1.7153    1.9014    0.0000 C   0  0  0  0  0  0  0  0  0
   -2.4298    1.4889    0.0000 C   0  0  0  0  0  0  0  0  0
   -3.1443    1.9014    0.0000 N   0  0  0  0  0  0  0  0  0
   -3.8588    1.4889    0.0000 C   0  0  0  0  0  0  0  0  0
   -3.8588    0.6639    0.0000 C   0  0  0  0  0  0  0  0  0
   -3.1443    0.2514    0.0000 C   0  0  0  0  0  0  0  0  0
   -2.4298    0.6639    0.0000 C   0  0  0  0  0  0  0  0  0
   -1.7153    0.2514    0.0000 C   0  0  0  0  0  0  0  0  0
   -1.7153   -0.5736    0.0000 C   0  0  0  0  0  0  0  0  0
   -2.4298   -0.9861    0.0000 C   0  0  0  0  0  0  0  0  0
   -3.1443   -0.5736    0.0000 C   0  0  0  0  0  0  0  0  0
   -3.1443    2.7264    0.0000 C   0  0  0  0  0  0  0  0  0
   -3.8588    3.1389    0.0000 C   0  0  0  0  0  0  0  0  0
   -4.5732    2.7264    0.0000 C   0  0  0  0  0  0  0  0  0
   -0.2864    1.9014    0.0000 C   0  0  0  0  0  0  0  0  0
    0.4281    1.4889    0.0000 C   0  0  0  0  0  0  0  0  0
    0.4281    0.6639    0.0000 C   0  0  0  0  0  0  0  0  0
  1  2  1  0  0  0  0
  1  7  1  0  0  0  0
  2  3  2  0  0  0  0
  2  4  1  0  0  0  0
  4  5  1  0  0  0  0
  5  6  1  0  0  0  0
  7  8  4  0  0  0  0
  7 26  4  0  0  0  0
  8  9  4  0  0  0  0
  8 17  1  0  0  0  0
  9 10  1  0  0  0  0
  9 24  4  0  0  0  0
 10 11  1  0  0  0  0
 11 12  1  0  0  0  0
 11 16  1  0  0  0  0
 12 13  1  0  0  0  0
 12 21  1  0  0  0  0
 13 14  1  0  0  0  0
 14 15  1  0  0  0  0
 15 16  4  0  0  0  0
 15 20  4  0  0  0  0
 16 17  4  0  0  0  0
 17 18  4  0  0  0  0
 18 19  4  0  0  0  0
 19 20  4  0  0  0  0
 21 22  1  0  0  0  0
 22 23  1  0  0  0  0
 24 25  4  0  0  0  0
 25 26  4  0  0  0  0
M  END
>  <Name_Molregno>
490898

>  <5-HT2A>
7.25

>  <DOPAMINE D1>
7.92

>  <DOPAMINE D2>
5

$$$$
490899
  Marvin  02231216192D 0   1.00000     0.00000     0

 28 31  0  0  1  0  0  0  0  0999 V2000
    0.0083    0.8978    0.0000 O   0  0  0  0  0  0  0  0  0
    0.7228    1.3103    0.0000 C   0  0  0  0  0  0  0  0  0
    0.7228    2.1353    0.0000 O   0  0  0  0  0  0  0  0  0
    1.4373    0.8978    0.0000 C   0  0  0  0  0  0  0  0  0
    2.1518    1.3103    0.0000 C   0  0  0  0  0  0  0  0  0
    2.8662    0.8978    0.0000 C   0  0  0  0  0  0  0  0  0
    3.5807    1.3103    0.0000 C   0  0  0  0  0  0  0  0  0
    4.2952    0.8978    0.0000 C   0  0  0  0  0  0  0  0  0
   -0.7061    1.3103    0.0000 C   0  0  0  0  0  0  0  0  0
   -1.4206    0.8978    0.0000 C   0  0  0  0  0  0  0  0  0
   -2.1351    1.3103    0.0000 C   0  0  0  0  0  0  0  0  0
   -2.8495    0.8978    0.0000 C   0  0  0  0  0  0  0  0  0
   -2.8495    0.0728    0.0000 C   0  0  0  0  0  0  0  0  0
   -3.5640   -0.3397    0.0000 N   0  0  0  0  0  0  0  0  0
   -3.5640   -1.1647    0.0000 C   0  0  0  0  0  0  0  0  0
   -2.8495   -1.5772    0.0000 C   0  0  0  0  0  0  0  0  0
   -2.1351   -1.1647    0.0000 C   0  0  0  0  0  0  0  0  0
   -2.1351   -0.3397    0.0000 C   0  0  0  0  0  0  0  0  0
   -1.4206    0.0728    0.0000 C   0  0  0  0  0  0  0  0  0
   -0.7061   -0.3397    0.0000 C   0  0  0  0  0  0  0  0  0
   -0.7061   -1.1647    0.0000 C   0  0  0  0  0  0  0  0  0
   -1.4206   -1.5772    0.0000 C   0  0  0  0  0  0  0  0  0
   -4.2785    0.0728    0.0000 C   0  0  0  0  0  0  0  0  0
   -4.9930   -0.3397    0.0000 C   0  0  0  0  0  0  0  0  0
   -4.9930   -1.1647    0.0000 C   0  0  0  0  0  0  0  0  0
   -2.1351    2.1353    0.0000 C   0  0  0  0  0  0  0  0  0
   -1.4206    2.5478    0.0000 C   0  0  0  0  0  0  0  0  0
   -0.7061    2.1353    0.0000 C   0  0  0  0  0  0  0  0  0
  1  2  1  0  0  0  0
  1  9  1  0  0  0  0
  2  3  2  0  0  0  0
  2  4  1  0  0  0  0
  4  5  1  0  0  0  0
  5  6  1  0  0  0  0
  6  7  1  0  0  0  0
  7  8  1  0  0  0  0
  9 10  4  0  0  0  0
  9 28  4  0  0  0  0
 10 11  4  0  0  0  0
 10 19  1  0  0  0  0
 11 12  1  0  0  0  0
 11 26  4  0  0  0  0
 12 13  1  0  0  0  0
 13 14  1  0  0  0  0
 13 18  1  0  0  0  0
 14 15  1  0  0  0  0
 14 23  1  0  0  0  0
 15 16  1  0  0  0  0
 16 17  1  0  0  0  0
 17 18  4  0  0  0  0
 17 22  4  0  0  0  0
 18 19  4  0  0  0  0
 19 20  4  0  0  0  0
 20 21  4  0  0  0  0
 21 22  4  0  0  0  0
 23 24  1  0  0  0  0
 24 25  1  0  0  0  0
 26 27  4  0  0  0  0
 27 28  4  0  0  0  0
M  END
>  <Name_Molregno>
490899

>  <5-HT2A>
6.96

>  <DOPAMINE D1>
8

>  <DOPAMINE D2>
5

$$$$
490900
  Marvin  02231216192D 0   1.00000     0.00000     0

 29 32  0  0  1  0  0  0  0  0999 V2000
   -0.0267    0.6963    0.0000 O   0  0  0  0  0  0  0  0  0
    0.6877    1.1088    0.0000 C   0  0  0  0  0  0  0  0  0
    0.6877    1.9338    0.0000 O   0  0  0  0  0  0  0  0  0
    1.4022    0.6963    0.0000 C   0  0  0  0  0  0  0  0  0
    2.1167    1.1088    0.0000 C   0  0  0  0  0  0  0  0  0
    2.8311    0.6963    0.0000 C   0  0  0  0  0  0  0  0  0
    3.5456    1.1088    0.0000 C   0  0  0  0  0  0  0  0  0
    4.2601    0.6963    0.0000 C   0  0  0  0  0  0  0  0  0
    4.9746    1.1088    0.0000 C   0  0  0  0  0  0  0  0  0
   -0.7412    1.1088    0.0000 C   0  0  0  0  0  0  0  0  0
   -1.4557    0.6963    0.0000 C   0  0  0  0  0  0  0  0  0
   -2.1702    1.1088    0.0000 C   0  0  0  0  0  0  0  0  0
   -2.8846    0.6963    0.0000 C   0  0  0  0  0  0  0  0  0
   -2.8846   -0.1287    0.0000 C   0  0  0  0  0  0  0  0  0
   -3.5991   -0.5412    0.0000 N   0  0  0  0  0  0  0  0  0
   -3.5991   -1.3662    0.0000 C   0  0  0  0  0  0  0  0  0
   -2.8846   -1.7787    0.0000 C   0  0  0  0  0  0  0  0  0
   -2.1702   -1.3662    0.0000 C   0  0  0  0  0  0  0  0  0
   -2.1702   -0.5412    0.0000 C   0  0  0  0  0  0  0  0  0
   -1.4557   -0.1287    0.0000 C   0  0  0  0  0  0  0  0  0
   -0.7412   -0.5412    0.0000 C   0  0  0  0  0  0  0  0  0
   -0.7412   -1.3662    0.0000 C   0  0  0  0  0  0  0  0  0
   -1.4557   -1.7787    0.0000 C   0  0  0  0  0  0  0  0  0
   -4.3136   -0.1287    0.0000 C   0  0  0  0  0  0  0  0  0
   -4.3136    0.6963    0.0000 C   0  0  0  0  0  0  0  0  0
   -5.0280    1.1088    0.0000 C   0  0  0  0  0  0  0  0  0
   -2.1702    1.9338    0.0000 C   0  0  0  0  0  0  0  0  0
   -1.4557    2.3463    0.0000 C   0  0  0  0  0  0  0  0  0
   -0.7412    1.9338    0.0000 C   0  0  0  0  0  0  0  0  0
  1  2  1  0  0  0  0
  1 10  1  0  0  0  0
  2  3  2  0  0  0  0
  2  4  1  0  0  0  0
  4  5  1  0  0  0  0
  5  6  1  0  0  0  0
  6  7  1  0  0  0  0
  7  8  1  0  0  0  0
  8  9  1  0  0  0  0
 10 11  4  0  0  0  0
 10 29  4  0  0  0  0
 11 12  4  0  0  0  0
 11 20  1  0  0  0  0
 12 13  1  0  0  0  0
 12 27  4  0  0  0  0
 13 14  1  0  0  0  0
 14 15  1  0  0  0  0
 14 19  1  0  0  0  0
 15 16  1  0  0  0  0
 15 24  1  0  0  0  0
 16 17  1  0  0  0  0
 17 18  1  0  0  0  0
 18 19  4  0  0  0  0
 18 23  4  0  0  0  0
 19 20  4  0  0  0  0
 20 21  4  0  0  0  0
 21 22  4  0  0  0  0
 22 23  4  0  0  0  0
 24 25  1  0  0  0  0
 25 26  1  0  0  0  0
 27 28  4  0  0  0  0
 28 29  4  0  0  0  0
M  END
>  <Name_Molregno>
490900

>  <5-HT2A>
7.02

>  <DOPAMINE D1>
7.51

>  <DOPAMINE D2>
5

$$$$
490901
  Marvin  02231216192D 0   1.00000     0.00000     0

 35 39  0  0  1  0  0  0  0  0999 V2000
   -0.0445    0.3724    0.0000 O   0  0  0  0  0  0  0  0  0
    0.6699    0.7849    0.0000 C   0  0  0  0  0  0  0  0  0
    0.6699    1.6099    0.0000 O   0  0  0  0  0  0  0  0  0
    1.3844    0.3724    0.0000 C   0  0  0  0  0  0  0  0  0
    2.0989    0.7849    0.0000 N   0  0  0  0  0  0  0  0  0
    2.8134    0.3724    0.0000 C   0  0  0  0  0  0  0  0  0
    3.5278    0.7849    0.0000 O   0  0  0  0  0  0  0  0  0
    4.2423    0.3724    0.0000 C   0  0  0  0  0  0  0  0  0
    4.9568    0.7849    0.0000 C   0  0  0  0  0  0  0  0  0
    4.9568    1.6099    0.0000 C   0  0  0  0  0  0  0  0  0
    5.6712    2.0224    0.0000 C   0  0  0  0  0  0  0  0  0
    6.3857    1.6099    0.0000 C   0  0  0  0  0  0  0  0  0
    6.3857    0.7849    0.0000 C   0  0  0  0  0  0  0  0  0
    5.6712    0.3724    0.0000 C   0  0  0  0  0  0  0  0  0
    2.8134   -0.4526    0.0000 O   0  0  0  0  0  0  0  0  0
   -0.7590    0.7849    0.0000 C   0  0  0  0  0  0  0  0  0
   -1.4735    0.3724    0.0000 C   0  0  0  0  0  0  0  0  0
   -2.1879    0.7849    0.0000 C   0  0  0  0  0  0  0  0  0
   -2.9024    0.3724    0.0000 C   0  0  0  0  0  0  0  0  0
   -2.9024   -0.4526    0.0000 C   0  0  0  0  0  0  0  0  0
   -3.6169   -0.8651    0.0000 N   0  0  0  0  0  0  0  0  0
   -3.6169   -1.6901    0.0000 C   0  0  0  0  0  0  0  0  0
   -2.9024   -2.1026    0.0000 C   0  0  0  0  0  0  0  0  0
   -2.1879   -1.6901    0.0000 C   0  0  0  0  0  0  0  0  0
   -2.1879   -0.8651    0.0000 C   0  0  0  0  0  0  0  0  0
   -1.4735   -0.4526    0.0000 C   0  0  0  0  0  0  0  0  0
   -0.7590   -0.8651    0.0000 C   0  0  0  0  0  0  0  0  0
   -0.7590   -1.6901    0.0000 C   0  0  0  0  0  0  0  0  0
   -1.4735   -2.1026    0.0000 C   0  0  0  0  0  0  0  0  0
   -4.3314   -0.4526    0.0000 C   0  0  0  0  0  0  0  0  0
   -4.3314    0.3724    0.0000 C   0  0  0  0  0  0  0  0  0
   -5.0458    0.7849    0.0000 C   0  0  0  0  0  0  0  0  0
   -2.1879    1.6099    0.0000 C   0  0  0  0  0  0  0  0  0
   -1.4735    2.0224    0.0000 C   0  0  0  0  0  0  0  0  0
   -0.7590    1.6099    0.0000 C   0  0  0  0  0  0  0  0  0
  1  2  1  0  0  0  0
  1 16  1  0  0  0  0
  2  3  2  0  0  0  0
  2  4  1  0  0  0  0
  4  5  1  0  0  0  0
  5  6  1  0  0  0  0
  6  7  1  0  0  0  0
  6 15  2  0  0  0  0
  7  8  1  0  0  0  0
  8  9  1  0  0  0  0
  9 10  4  0  0  0  0
  9 14  4  0  0  0  0
 10 11  4  0  0  0  0
 11 12  4  0  0  0  0
 12 13  4  0  0  0  0
 13 14  4  0  0  0  0
 16 17  4  0  0  0  0
 16 35  4  0  0  0  0
 17 18  4  0  0  0  0
 17 26  1  0  0  0  0
 18 19  1  0  0  0  0
 18 33  4  0  0  0  0
 19 20  1  0  0  0  0
 20 21  1  0  0  0  0
 20 25  1  0  0  0  0
 21 22  1  0  0  0  0
 21 30  1  0  0  0  0
 22 23  1  0  0  0  0
 23 24  1  0  0  0  0
 24 25  4  0  0  0  0
 24 29  4  0  0  0  0
 25 26  4  0  0  0  0
 26 27  4  0  0  0  0
 27 28  4  0  0  0  0
 28 29  4  0  0  0  0
 30 31  1  0  0  0  0
 31 32  1  0  0  0  0
 33 34  4  0  0  0  0
 34 35  4  0  0  0  0
M  END
>  <Name_Molregno>
490901

>  <5-HT2A>
5

>  <DOPAMINE D2>
5

$$$$
490902
  Marvin  02231216192D 0   1.00000     0.00000     0

 48 55  0  0  1  0  0  0  0  0999 V2000
    1.6294    1.2461    0.0000 O   0  0  0  0  0  0  0  0  0
    2.3438    0.8336    0.0000 C   0  0  0  0  0  0  0  0  0
    3.0583    1.2461    0.0000 O   0  0  0  0  0  0  0  0  0
    2.3438    0.0086    0.0000 C   0  0  0  0  0  0  0  0  0
    3.0583   -0.4039    0.0000 C   0  0  0  0  0  0  0  0  0
    3.0583   -1.2289    0.0000 C   0  0  0  0  0  0  0  0  0
    3.7728   -1.6414    0.0000 O   0  0  0  0  0  0  0  0  0
    3.7728   -2.4664    0.0000 C   0  0  0  0  0  0  0  0  0
    4.4873   -2.8789    0.0000 C   0  0  0  0  0  0  0  0  0
    4.4873   -3.7039    0.0000 C   0  0  0  0  0  0  0  0  0
    3.7728   -4.1164    0.0000 C   0  0  0  0  0  0  0  0  0
    3.7728   -4.9414    0.0000 C   0  0  0  0  0  0  0  0  0
    4.4873   -5.3539    0.0000 C   0  0  0  0  0  0  0  0  0
    4.4873   -6.1789    0.0000 N   0  0  0  0  0  0  0  0  0
    5.2017   -6.5914    0.0000 C   0  0  0  0  0  0  0  0  0
    5.9162   -6.1789    0.0000 C   0  0  0  0  0  0  0  0  0
    5.9162   -5.3539    0.0000 C   0  0  0  0  0  0  0  0  0
    5.2017   -4.9414    0.0000 C   0  0  0  0  0  0  0  0  0
    5.2017   -4.1164    0.0000 C   0  0  0  0  0  0  0  0  0
    5.9162   -3.7039    0.0000 C   0  0  0  0  0  0  0  0  0
    6.6307   -4.1164    0.0000 C   0  0  0  0  0  0  0  0  0
    6.6307   -4.9414    0.0000 C   0  0  0  0  0  0  0  0  0
    3.7728   -6.5914    0.0000 C   0  0  0  0  0  0  0  0  0
    3.7728   -7.4164    0.0000 C   0  0  0  0  0  0  0  0  0
    4.4873   -7.8289    0.0000 C   0  0  0  0  0  0  0  0  0
    3.0583   -3.7039    0.0000 C   0  0  0  0  0  0  0  0  0
    3.0583   -2.8789    0.0000 C   0  0  0  0  0  0  0  0  0
    2.3438   -1.6414    0.0000 O   0  0  0  0  0  0  0  0  0
    1.6294    2.0711    0.0000 C   0  0  0  0  0  0  0  0  0
    0.9149    2.4836    0.0000 C   0  0  0  0  0  0  0  0  0
    0.9149    3.3086    0.0000 C   0  0  0  0  0  0  0  0  0
    0.2004    3.7211    0.0000 C   0  0  0  0  0  0  0  0  0
   -0.5140    3.3086    0.0000 C   0  0  0  0  0  0  0  0  0
   -1.2285    3.7211    0.0000 N   0  0  0  0  0  0  0  0  0
   -1.9430    3.3086    0.0000 C   0  0  0  0  0  0  0  0  0
   -1.9430    2.4836    0.0000 C   0  0  0  0  0  0  0  0  0
   -1.2285    2.0711    0.0000 C   0  0  0  0  0  0  0  0  0
   -0.5140    2.4836    0.0000 C   0  0  0  0  0  0  0  0  0
    0.2004    2.0711    0.0000 C   0  0  0  0  0  0  0  0  0
    0.2004    1.2461    0.0000 C   0  0  0  0  0  0  0  0  0
   -0.5140    0.8336    0.0000 C   0  0  0  0  0  0  0  0  0
   -1.2285    1.2461    0.0000 C   0  0  0  0  0  0  0  0  0
   -1.2285    4.5461    0.0000 C   0  0  0  0  0  0  0  0  0
   -1.9430    4.9586    0.0000 C   0  0  0  0  0  0  0  0  0
   -2.6575    4.5461    0.0000 C   0  0  0  0  0  0  0  0  0
    1.6294    3.7211    0.0000 C   0  0  0  0  0  0  0  0  0
    2.3438    3.3086    0.0000 C   0  0  0  0  0  0  0  0  0
    2.3438    2.4836    0.0000 C   0  0  0  0  0  0  0  0  0
  1  2  1  0  0  0  0
  1 29  1  0  0  0  0
  2  3  2  0  0  0  0
  2  4  1  0  0  0  0
  4  5  1  0  0  0  0
  5  6  1  0  0  0  0
  6  7  1  0  0  0  0
  6 28  2  0  0  0  0
  7  8  1  0  0  0  0
  8  9  4  0  0  0  0
  8 27  4  0  0  0  0
  9 10  4  0  0  0  0
 10 11  4  0  0  0  0
 10 19  1  0  0  0  0
 11 12  1  0  0  0  0
 11 26  4  0  0  0  0
 12 13  1  0  0  0  0
 13 14  1  0  0  0  0
 13 18  1  0  0  0  0
 14 15  1  0  0  0  0
 14 23  1  0  0  0  0
 15 16  1  0  0  0  0
 16 17  1  0  0  0  0
 17 18  4  0  0  0  0
 17 22  4  0  0  0  0
 18 19  4  0  0  0  0
 19 20  4  0  0  0  0
 20 21  4  0  0  0  0
 21 22  4  0  0  0  0
 23 24  1  0  0  0  0
 24 25  1  0  0  0  0
 26 27  4  0  0  0  0
 29 30  4  0  0  0  0
 29 48  4  0  0  0  0
 30 31  4  0  0  0  0
 30 39  1  0  0  0  0
 31 32  1  0  0  0  0
 31 46  4  0  0  0  0
 32 33  1  0  0  0  0
 33 34  1  0  0  0  0
 33 38  1  0  0  0  0
 34 35  1  0  0  0  0
 34 43  1  0  0  0  0
 35 36  1  0  0  0  0
 36 37  1  0  0  0  0
 37 38  4  0  0  0  0
 37 42  4  0  0  0  0
 38 39  4  0  0  0  0
 39 40  4  0  0  0  0
 40 41  4  0  0  0  0
 41 42  4  0  0  0  0
 43 44  1  0  0  0  0
 44 45  1  0  0  0  0
 46 47  4  0  0  0  0
 47 48  4  0  0  0  0
M  END
>  <Name_Molregno>
490902

>  <5-HT2A>
5

>  <DOPAMINE D2>
5

$$$$
490903
  Marvin  02231216192D 0   1.00000     0.00000     0

 49 56  0  0  1  0  0  0  0  0999 V2000
    0.6498    1.3311    0.0000 O   0  0  0  0  0  0  0  0  0
    1.3643    0.9186    0.0000 C   0  0  0  0  0  0  0  0  0
    2.0788    1.3311    0.0000 O   0  0  0  0  0  0  0  0  0
    1.3643    0.0936    0.0000 C   0  0  0  0  0  0  0  0  0
    2.0788   -0.3189    0.0000 C   0  0  0  0  0  0  0  0  0
    2.0788   -1.1439    0.0000 C   0  0  0  0  0  0  0  0  0
    2.7932   -1.5564    0.0000 C   0  0  0  0  0  0  0  0  0
    2.7932   -2.3814    0.0000 O   0  0  0  0  0  0  0  0  0
    3.5077   -2.7939    0.0000 C   0  0  0  0  0  0  0  0  0
    4.2222   -2.3814    0.0000 C   0  0  0  0  0  0  0  0  0
    4.9366   -2.7939    0.0000 C   0  0  0  0  0  0  0  0  0
    4.9366   -3.6189    0.0000 C   0  0  0  0  0  0  0  0  0
    5.6511   -4.0314    0.0000 C   0  0  0  0  0  0  0  0  0
    6.3656   -3.6189    0.0000 C   0  0  0  0  0  0  0  0  0
    7.0801   -4.0314    0.0000 N   0  0  0  0  0  0  0  0  0
    7.7945   -3.6189    0.0000 C   0  0  0  0  0  0  0  0  0
    7.7945   -2.7939    0.0000 C   0  0  0  0  0  0  0  0  0
    7.0801   -2.3814    0.0000 C   0  0  0  0  0  0  0  0  0
    6.3656   -2.7939    0.0000 C   0  0  0  0  0  0  0  0  0
    5.6511   -2.3814    0.0000 C   0  0  0  0  0  0  0  0  0
    5.6511   -1.5564    0.0000 C   0  0  0  0  0  0  0  0  0
    6.3656   -1.1439    0.0000 C   0  0  0  0  0  0  0  0  0
    7.0801   -1.5564    0.0000 C   0  0  0  0  0  0  0  0  0
    7.0801   -4.8564    0.0000 C   0  0  0  0  0  0  0  0  0
    7.7945   -5.2689    0.0000 C   0  0  0  0  0  0  0  0  0
    7.7945   -6.0939    0.0000 C   0  0  0  0  0  0  0  0  0
    4.2222   -4.0314    0.0000 C   0  0  0  0  0  0  0  0  0
    3.5077   -3.6189    0.0000 C   0  0  0  0  0  0  0  0  0
    3.5077   -1.1439    0.0000 O   0  0  0  0  0  0  0  0  0
    0.6498    2.1561    0.0000 C   0  0  0  0  0  0  0  0  0
   -0.0647    2.5686    0.0000 C   0  0  0  0  0  0  0  0  0
   -0.0647    3.3936    0.0000 C   0  0  0  0  0  0  0  0  0
   -0.7791    3.8061    0.0000 C   0  0  0  0  0  0  0  0  0
   -1.4936    3.3936    0.0000 C   0  0  0  0  0  0  0  0  0
   -2.2081    3.8061    0.0000 N   0  0  0  0  0  0  0  0  0
   -2.9225    3.3936    0.0000 C   0  0  0  0  0  0  0  0  0
   -2.9225    2.5686    0.0000 C   0  0  0  0  0  0  0  0  0
   -2.2081    2.1561    0.0000 C   0  0  0  0  0  0  0  0  0
   -1.4936    2.5686    0.0000 C   0  0  0  0  0  0  0  0  0
   -0.7791    2.1561    0.0000 C   0  0  0  0  0  0  0  0  0
   -0.7791    1.3311    0.0000 C   0  0  0  0  0  0  0  0  0
   -1.4936    0.9186    0.0000 C   0  0  0  0  0  0  0  0  0
   -2.2081    1.3311    0.0000 C   0  0  0  0  0  0  0  0  0
   -2.2081    4.6311    0.0000 C   0  0  0  0  0  0  0  0  0
   -1.4936    5.0436    0.0000 C   0  0  0  0  0  0  0  0  0
   -1.4936    5.8686    0.0000 C   0  0  0  0  0  0  0  0  0
    0.6498    3.8061    0.0000 C   0  0  0  0  0  0  0  0  0
    1.3643    3.3936    0.0000 C   0  0  0  0  0  0  0  0  0
    1.3643    2.5686    0.0000 C   0  0  0  0  0  0  0  0  0
  1  2  1  0  0  0  0
  1 30  1  0  0  0  0
  2  3  2  0  0  0  0
  2  4  1  0  0  0  0
  4  5  1  0  0  0  0
  5  6  1  0  0  0  0
  6  7  1  0  0  0  0
  7  8  1  0  0  0  0
  7 29  2  0  0  0  0
  8  9  1  0  0  0  0
  9 10  4  0  0  0  0
  9 28  4  0  0  0  0
 10 11  4  0  0  0  0
 11 12  4  0  0  0  0
 11 20  1  0  0  0  0
 12 13  1  0  0  0  0
 12 27  4  0  0  0  0
 13 14  1  0  0  0  0
 14 15  1  0  0  0  0
 14 19  1  0  0  0  0
 15 16  1  0  0  0  0
 15 24  1  0  0  0  0
 16 17  1  0  0  0  0
 17 18  1  0  0  0  0
 18 19  4  0  0  0  0
 18 23  4  0  0  0  0
 19 20  4  0  0  0  0
 20 21  4  0  0  0  0
 21 22  4  0  0  0  0
 22 23  4  0  0  0  0
 24 25  1  0  0  0  0
 25 26  1  0  0  0  0
 27 28  4  0  0  0  0
 30 31  4  0  0  0  0
 30 49  4  0  0  0  0
 31 32  4  0  0  0  0
 31 40  1  0  0  0  0
 32 33  1  0  0  0  0
 32 47  4  0  0  0  0
 33 34  1  0  0  0  0
 34 35  1  0  0  0  0
 34 39  1  0  0  0  0
 35 36  1  0  0  0  0
 35 44  1  0  0  0  0
 36 37  1  0  0  0  0
 37 38  1  0  0  0  0
 38 39  4  0  0  0  0
 38 43  4  0  0  0  0
 39 40  4  0  0  0  0
 40 41  4  0  0  0  0
 41 42  4  0  0  0  0
 42 43  4  0  0  0  0
 44 45  1  0  0  0  0
 45 46  1  0  0  0  0
 47 48  4  0  0  0  0
 48 49  4  0  0  0  0
M  END
>  <Name_Molregno>
490903

>  <5-HT2A>
5

>  <DOPAMINE D2>
5

$$$$
493307
  Marvin  02231216192D 0   1.00000     0.00000     0

 18 20  0  0  1  0  0  0  0  0999 V2000
   -0.4022   -1.6695    0.0000 O   0  0  0  0  0  0  0  0  0
    0.3123   -2.0820    0.0000 C   0  0  0  0  0  0  0  0  0
   -0.4022   -0.8445    0.0000 C   0  0  0  0  0  0  0  0  0
   -1.1167   -0.4320    0.0000 C   0  0  0  0  0  0  0  0  0
   -1.1167    0.3930    0.0000 C   0  0  0  0  0  0  0  0  0
   -1.8312    0.8055    0.0000 C   0  0  0  0  0  0  0  0  0
   -2.5456    0.3930    0.0000 C   0  0  0  0  0  0  0  0  0
   -2.5456   -0.4320    0.0000 C   0  0  0  0  0  0  0  0  0
   -3.2601   -0.8445    0.0000 C   0  0  0  0  0  0  0  0  0
   -3.9746   -0.4320    0.0000 C   0  0  0  0  0  0  0  0  0
   -3.9746    0.3930    0.0000 C   0  0  0  0  0  0  0  0  0
   -3.2601    0.8055    0.0000 C   0  0  0  0  0  0  0  0  0
   -1.8312   -0.8445    0.0000 C   0  0  0  0  0  0  0  0  0
   -1.8312   -1.6695    0.0000 C   0  0  0  0  0  0  0  0  0
   -2.5456   -2.0820    0.0000 N   0  0  0  0  0  0  0  0  0
   -0.4022    0.8055    0.0000 C   0  0  0  0  0  0  0  0  0
    0.3123    0.3930    0.0000 C   0  0  0  0  0  0  0  0  0
    0.3123   -0.4320    0.0000 C   0  0  0  0  0  0  0  0  0
  1  2  1  0  0  0  0
  1  3  1  0  0  0  0
  3  4  4  0  0  0  0
  3 18  4  0  0  0  0
  4  5  4  0  0  0  0
  4 13  1  0  0  0  0
  5  6  1  0  0  0  0
  5 16  4  0  0  0  0
  6  7  1  0  0  0  0
  7  8  4  0  0  0  0
  7 12  4  0  0  0  0
  8  9  4  0  0  0  0
  8 13  1  0  0  0  0
  9 10  4  0  0  0  0
 10 11  4  0  0  0  0
 11 12  4  0  0  0  0
 13 14  1  0  0  0  0
 14 15  1  0  0  0  0
 16 17  4  0  0  0  0
 17 18  4  0  0  0  0
M  END
>  <Name_Molregno>
493307

>  <5-HT2A>
5.94

$$$$
493308
  Marvin  02231216192D 0   1.00000     0.00000     0

 18 20  0  0  1  0  0  0  0  0999 V2000
    0.0638   -1.0754    0.0000 O   0  0  0  0  0  0  0  0  0
    0.7782   -0.6629    0.0000 C   0  0  0  0  0  0  0  0  0
   -0.6507   -0.6629    0.0000 C   0  0  0  0  0  0  0  0  0
   -1.3652   -1.0754    0.0000 C   0  0  0  0  0  0  0  0  0
   -2.0796   -0.6629    0.0000 C   0  0  0  0  0  0  0  0  0
   -2.0796    0.1621    0.0000 C   0  0  0  0  0  0  0  0  0
   -2.7941    0.5746    0.0000 C   0  0  0  0  0  0  0  0  0
   -3.5086    0.1621    0.0000 C   0  0  0  0  0  0  0  0  0
   -3.5086   -0.6629    0.0000 C   0  0  0  0  0  0  0  0  0
   -4.2231   -1.0754    0.0000 C   0  0  0  0  0  0  0  0  0
   -4.9375   -0.6629    0.0000 C   0  0  0  0  0  0  0  0  0
   -4.9375    0.1621    0.0000 C   0  0  0  0  0  0  0  0  0
   -4.2231    0.5746    0.0000 C   0  0  0  0  0  0  0  0  0
   -2.7941   -1.0754    0.0000 C   0  0  0  0  0  0  0  0  0
   -2.7941   -1.9004    0.0000 C   0  0  0  0  0  0  0  0  0
   -3.5086   -2.3129    0.0000 N   0  0  0  0  0  0  0  0  0
   -1.3652    0.5746    0.0000 C   0  0  0  0  0  0  0  0  0
   -0.6507    0.1621    0.0000 C   0  0  0  0  0  0  0  0  0
  1  2  1  0  0  0  0
  1  3  1  0  0  0  0
  3  4  4  0  0  0  0
  3 18  4  0  0  0  0
  4  5  4  0  0  0  0
  5  6  4  0  0  0  0
  5 14  1  0  0  0  0
  6  7  1  0  0  0  0
  6 17  4  0  0  0  0
  7  8  1  0  0  0  0
  8  9  4  0  0  0  0
  8 13  4  0  0  0  0
  9 10  4  0  0  0  0
  9 14  1  0  0  0  0
 10 11  4  0  0  0  0
 11 12  4  0  0  0  0
 12 13  4  0  0  0  0
 14 15  1  0  0  0  0
 15 16  1  0  0  0  0
 17 18  4  0  0  0  0
M  END
>  <Name_Molregno>
493308

>  <5-HT2A>
5.86

$$$$
493309
  Marvin  02231216192D 0   1.00000     0.00000     0

 18 20  0  0  1  0  0  0  0  0999 V2000
   -0.6054   -2.4215    0.0000 O   0  0  0  0  0  0  0  0  0
    0.1090   -2.8340    0.0000 C   0  0  0  0  0  0  0  0  0
   -0.6054   -1.5965    0.0000 C   0  0  0  0  0  0  0  0  0
   -1.3199   -1.1840    0.0000 C   0  0  0  0  0  0  0  0  0
   -1.3199   -0.3590    0.0000 C   0  0  0  0  0  0  0  0  0
   -0.6054    0.0535    0.0000 C   0  0  0  0  0  0  0  0  0
    0.1090   -0.3590    0.0000 C   0  0  0  0  0  0  0  0  0
    0.1090   -1.1840    0.0000 C   0  0  0  0  0  0  0  0  0
   -2.0344    0.0535    0.0000 C   0  0  0  0  0  0  0  0  0
   -2.7488   -0.3590    0.0000 C   0  0  0  0  0  0  0  0  0
   -2.7488   -1.1840    0.0000 C   0  0  0  0  0  0  0  0  0
   -2.0344   -1.5965    0.0000 C   0  0  0  0  0  0  0  0  0
   -3.4633   -1.5965    0.0000 C   0  0  0  0  0  0  0  0  0
   -4.1778   -1.1840    0.0000 C   0  0  0  0  0  0  0  0  0
   -4.1778   -0.3590    0.0000 C   0  0  0  0  0  0  0  0  0
   -3.4633    0.0535    0.0000 C   0  0  0  0  0  0  0  0  0
   -2.0344    0.8785    0.0000 C   0  0  0  0  0  0  0  0  0
   -2.7488    1.2910    0.0000 N   0  0  0  0  0  0  0  0  0
  1  2  1  0  0  0  0
  1  3  1  0  0  0  0
  3  4  4  0  0  0  0
  3  8  4  0  0  0  0
  4  5  4  0  0  0  0
  4 12  1  0  0  0  0
  5  6  4  0  0  0  0
  5  9  1  0  0  0  0
  6  7  4  0  0  0  0
  7  8  4  0  0  0  0
  9 10  1  0  0  0  0
  9 17  1  0  0  0  0
 10 11  4  0  0  0  0
 10 16  4  0  0  0  0
 11 12  1  0  0  0  0
 11 13  4  0  0  0  0
 13 14  4  0  0  0  0
 14 15  4  0  0  0  0
 15 16  4  0  0  0  0
 17 18  1  0  0  0  0
M  END
>  <Name_Molregno>
493309

>  <5-HT2A>
6.91

$$$$
515852
  Marvin  02231216192D 0   1.00000     0.00000     0

 24 28  0  0  1  0  0  0  0  0999 V2000
    3.5696   -0.3324    0.0000 O   0  0  0  0  0  0  0  0  0
    3.9434   -1.0678    0.0000 C   0  0  0  0  0  0  0  0  0
    3.3594   -1.6506    0.0000 C   0  0  0  0  0  0  0  0  0
    2.6247   -1.2753    0.0000 C   0  0  0  0  0  0  0  0  0
    2.7546   -0.4606    0.0000 C   0  0  0  0  0  0  0  0  0
    2.1140    0.0593    0.0000 C   0  0  0  0  0  0  0  0  0
    1.3435   -0.2355    0.0000 C   0  0  0  0  0  0  0  0  0
    1.2136   -1.0502    0.0000 C   0  0  0  0  0  0  0  0  0
    1.8542   -1.5701    0.0000 C   0  0  0  0  0  0  0  0  0
    1.7243   -2.3848    0.0000 N   0  0  0  0  0  0  0  0  0
    0.9537   -2.6797    0.0000 C   0  0  0  0  0  0  0  0  0
    0.3131   -2.1598    0.0000 N   0  0  0  0  0  0  0  0  0
    0.4431   -1.3451    0.0000 C   0  0  0  0  0  0  0  0  0
   -0.1975   -0.8252    0.0000 N   0  0  0  0  0  0  0  0  0
   -0.9680   -1.1201    0.0000 C   0  0  0  0  0  0  0  0  0
   -1.6086   -0.6002    0.0000 C   0  0  0  0  0  0  0  0  0
   -1.4787    0.2145    0.0000 N   0  0  0  0  0  0  0  0  0
   -0.7082    0.5094    0.0000 C   0  0  0  0  0  0  0  0  0
   -0.0676   -0.0105    0.0000 C   0  0  0  0  0  0  0  0  0
    0.8238   -3.4944    0.0000 N   0  0  0  0  0  0  0  0  0
    3.5721   -2.4477    0.0000 C   0  0  0  0  0  0  0  0  0
    4.3687   -2.6621    0.0000 C   0  0  0  0  0  0  0  0  0
    4.9527   -2.0793    0.0000 C   0  0  0  0  0  0  0  0  0
    4.7400   -1.2822    0.0000 C   0  0  0  0  0  0  0  0  0
  1  2  1  0  0  0  0
  1  5  1  0  0  0  0
  2  3  1  0  0  0  0
  2 24  1  0  0  0  0
  3  4  1  0  0  0  0
  3 21  1  0  0  0  0
  4  5  2  0  0  0  0
  4  9  1  0  0  0  0
  5  6  1  0  0  0  0
  6  7  1  0  0  0  0
  7  8  1  0  0  0  0
  8  9  4  0  0  0  0
  8 13  4  0  0  0  0
  9 10  4  0  0  0  0
 10 11  4  0  0  0  0
 11 12  4  0  0  0  0
 11 20  1  0  0  0  0
 12 13  4  0  0  0  0
 13 14  1  0  0  0  0
 14 15  1  0  0  0  0
 14 19  1  0  0  0  0
 15 16  1  0  0  0  0
 16 17  1  0  0  0  0
 17 18  1  0  0  0  0
 18 19  1  0  0  0  0
 21 22  1  0  0  0  0
 22 23  1  0  0  0  0
 23 24  1  0  0  0  0
M  END
>  <Name_Molregno>
515852

>  <5-HT1A>
9.18

>  <5-HT1B>
7.74

>  <5-HT2A>
8.89

>  <5-HT2C>
8.41

>  <5-HT3>
8.18

>  <5-HT5>
6.96

>  <5-HT6>
7.03

>  <5-HT7>
9.66

>  <Beta-1>
6.37

>  <Beta-2>
9.3

>  <DOPAMINE D1>
9.42

>  <DOPAMINE D2>
8.54

>  <DOPAMINE D3>
8.85

>  <DOPAMINE D5>
9.32

>  <Dopamine transporter>
8.05

>  <HISTAMINE H1>
7.05

>  <HISTAMINE H2>
5.91

>  <HISTAMINE H3>
6.03

>  <HISTAMINE H4>
8.24

>  <Muscarinic acetylcholine receptor M1>
7.6

>  <Muscarinic acetylcholine receptor M2>
7.44

>  <Muscarinic acetylcholine receptor M3>
9.38

>  <Muscarinic acetylcholine receptor M4>
9.18

>  <Muscarinic acetylcholine receptor M5>
9.38

>  <Norepinephrine transporter>
8.17

>  <Serotonin transporter>
8.49

$$$$
520577
  Marvin  02231216192D 0   1.00000     0.00000     0

 23 25  0  0  1  0  0  0  0  0999 V2000
    5.4446   -2.7090    0.0000 O   0  0  0  0  0  0  0  0  0
    5.1897   -3.4936    0.0000 C   0  0  0  0  0  0  0  0  0
    4.3647   -3.4936    0.0000 C   0  0  0  0  0  0  0  0  0
    4.1097   -2.7090    0.0000 N   0  0  0  0  0  0  0  0  0
    3.3251   -2.4540    0.0000 C   0  0  0  0  0  0  0  0  0
    3.1536   -1.6470    0.0000 C   0  0  0  0  0  0  0  0  0
    2.3690   -1.3921    0.0000 C   0  0  0  0  0  0  0  0  0
    2.1974   -0.5851    0.0000 C   0  0  0  0  0  0  0  0  0
    2.8105   -0.0331    0.0000 C   0  0  0  0  0  0  0  0  0
    2.6390    0.7739    0.0000 O   0  0  0  0  0  0  0  0  0
    3.2521    1.3259    0.0000 C   0  0  0  0  0  0  0  0  0
    4.0367    1.0710    0.0000 C   0  0  0  0  0  0  0  0  0
    3.0806    2.1329    0.0000 C   0  0  0  0  0  0  0  0  0
    2.2959    2.3878    0.0000 C   0  0  0  0  0  0  0  0  0
    2.1244    3.1948    0.0000 C   0  0  0  0  0  0  0  0  0
    2.7375    3.7468    0.0000 C   0  0  0  0  0  0  0  0  0
    3.5221    3.4919    0.0000 C   0  0  0  0  0  0  0  0  0
    3.6937    2.6849    0.0000 C   0  0  0  0  0  0  0  0  0
    3.5952   -0.2880    0.0000 C   0  0  0  0  0  0  0  0  0
    3.7667   -1.0950    0.0000 C   0  0  0  0  0  0  0  0  0
    4.7772   -2.2240    0.0000 C   0  0  0  0  0  0  0  0  0
    4.7772   -1.3990    0.0000 O   0  0  0  0  0  0  0  0  0
    5.6746   -4.1610    0.0000 C   0  0  0  0  0  0  0  0  0
  1  2  1  0  0  0  0
  1 21  1  0  0  0  0
  2  3  1  0  0  0  0
  2 23  1  0  0  0  0
  3  4  1  0  0  0  0
  4  5  1  0  0  0  0
  4 21  1  0  0  0  0
  5  6  1  0  0  0  0
  6  7  4  0  0  0  0
  6 20  4  0  0  0  0
  7  8  4  0  0  0  0
  8  9  4  0  0  0  0
  9 10  1  0  0  0  0
  9 19  4  0  0  0  0
 10 11  1  0  0  0  0
 11 12  1  0  0  0  0
 11 13  1  0  0  0  0
 13 14  1  0  0  0  0
 13 18  1  0  0  0  0
 14 15  1  0  0  0  0
 15 16  1  0  0  0  0
 16 17  1  0  0  0  0
 17 18  1  0  0  0  0
 19 20  4  0  0  0  0
 21 22  2  0  0  0  0
M  END
>  <Name_Molregno>
520577

>  <5-HT2A>
5.49

$$$$
520791
  Marvin  02231216192D 0   1.00000     0.00000     0

 22 24  0  0  1  0  0  0  0  0999 V2000
    1.7577    3.1021    0.0000 Cl  0  0  0  0  0  0  0  0  0
    1.7577    2.2771    0.0000 C   0  0  0  0  0  0  0  0  0
    2.4722    1.8646    0.0000 C   0  0  0  0  0  0  0  0  0
    2.4722    1.0396    0.0000 C   0  0  0  0  0  0  0  0  0
    1.7577    0.6271    0.0000 C   0  0  0  0  0  0  0  0  0
    1.0432    1.0396    0.0000 C   0  0  0  0  0  0  0  0  0
    1.0432    1.8646    0.0000 C   0  0  0  0  0  0  0  0  0
    0.3288    2.2771    0.0000 F   0  0  0  0  0  0  0  0  0
    3.1867    0.6271    0.0000 C   0  0  0  0  0  0  0  0  0
    3.9011    1.0396    0.0000 C   0  0  0  0  0  0  0  0  0
    4.6156    0.6271    0.0000 C   0  0  0  0  0  0  0  0  0
    4.6156   -0.1979    0.0000 C   0  0  0  0  0  0  0  0  0
    3.9011   -0.6104    0.0000 C   0  0  0  0  0  0  0  0  0
    3.1867   -0.1979    0.0000 C   0  0  0  0  0  0  0  0  0
    5.3301   -0.6104    0.0000 C   0  0  0  0  0  0  0  0  0
    5.3301   -1.4354    0.0000 N   0  0  0  0  0  0  0  0  0
    5.9975   -1.9203    0.0000 C   0  0  0  0  0  0  0  0  0
    5.7426   -2.7050    0.0000 C   0  0  0  0  0  0  0  0  0
    4.9176   -2.7050    0.0000 O   0  0  0  0  0  0  0  0  0
    4.6626   -1.9203    0.0000 C   0  0  0  0  0  0  0  0  0
    3.8780   -1.6654    0.0000 O   0  0  0  0  0  0  0  0  0
    6.2275   -3.3724    0.0000 C   0  0  0  0  0  0  0  0  0
  1  2  1  0  0  0  0
  2  3  4  0  0  0  0
  2  7  4  0  0  0  0
  3  4  4  0  0  0  0
  4  5  4  0  0  0  0
  4  9  1  0  0  0  0
  5  6  4  0  0  0  0
  6  7  4  0  0  0  0
  7  8  1  0  0  0  0
  9 10  4  0  0  0  0
  9 14  4  0  0  0  0
 10 11  4  0  0  0  0
 11 12  4  0  0  0  0
 12 13  4  0  0  0  0
 12 15  1  0  0  0  0
 13 14  4  0  0  0  0
 15 16  1  0  0  0  0
 16 17  1  0  0  0  0
 16 20  1  0  0  0  0
 17 18  1  0  0  0  0
 18 19  1  0  0  0  0
 18 22  1  0  0  0  0
 19 20  1  0  0  0  0
 20 21  2  0  0  0  0
M  END
>  <Name_Molregno>
520791

>  <5-HT2A>
5.68

$$$$
520792
  Marvin  02231216192D 0   1.00000     0.00000     0

 26 28  0  0  1  0  0  0  0  0999 V2000
   -2.9720   -1.6868    0.0000 F   0  0  0  0  0  0  0  0  0
   -2.9720   -0.8618    0.0000 C   0  0  0  0  0  0  0  0  0
   -3.6865   -0.4493    0.0000 C   0  0  0  0  0  0  0  0  0
   -3.6865    0.3757    0.0000 C   0  0  0  0  0  0  0  0  0
   -4.4009    0.7882    0.0000 O   0  0  0  0  0  0  0  0  0
   -4.4009    1.6132    0.0000 C   0  0  0  0  0  0  0  0  0
   -4.4009    2.4382    0.0000 F   0  0  0  0  0  0  0  0  0
   -5.2259    1.6132    0.0000 F   0  0  0  0  0  0  0  0  0
   -3.5759    1.6132    0.0000 F   0  0  0  0  0  0  0  0  0
   -2.9720    0.7882    0.0000 C   0  0  0  0  0  0  0  0  0
   -2.2575    0.3757    0.0000 C   0  0  0  0  0  0  0  0  0
   -2.2575   -0.4493    0.0000 C   0  0  0  0  0  0  0  0  0
   -1.5430   -0.8618    0.0000 C   0  0  0  0  0  0  0  0  0
   -0.8286   -0.4493    0.0000 C   0  0  0  0  0  0  0  0  0
   -0.1141   -0.8618    0.0000 C   0  0  0  0  0  0  0  0  0
   -0.1141   -1.6868    0.0000 C   0  0  0  0  0  0  0  0  0
   -0.8286   -2.0993    0.0000 C   0  0  0  0  0  0  0  0  0
   -1.5430   -1.6868    0.0000 C   0  0  0  0  0  0  0  0  0
    0.6004   -2.0993    0.0000 C   0  0  0  0  0  0  0  0  0
    0.6004   -2.9243    0.0000 N   0  0  0  0  0  0  0  0  0
    1.2678   -3.4092    0.0000 C   0  0  0  0  0  0  0  0  0
    1.0129   -4.1938    0.0000 C   0  0  0  0  0  0  0  0  0
    0.1879   -4.1938    0.0000 O   0  0  0  0  0  0  0  0  0
   -0.0671   -3.4092    0.0000 C   0  0  0  0  0  0  0  0  0
   -0.8517   -3.1542    0.0000 O   0  0  0  0  0  0  0  0  0
    1.4978   -4.8612    0.0000 C   0  0  0  0  0  0  0  0  0
  1  2  1  0  0  0  0
  2  3  4  0  0  0  0
  2 12  4  0  0  0  0
  3  4  4  0  0  0  0
  4  5  1  0  0  0  0
  4 10  4  0  0  0  0
  5  6  1  0  0  0  0
  6  7  1  0  0  0  0
  6  8  1  0  0  0  0
  6  9  1  0  0  0  0
 10 11  4  0  0  0  0
 11 12  4  0  0  0  0
 12 13  1  0  0  0  0
 13 14  4  0  0  0  0
 13 18  4  0  0  0  0
 14 15  4  0  0  0  0
 15 16  4  0  0  0  0
 16 17  4  0  0  0  0
 16 19  1  0  0  0  0
 17 18  4  0  0  0  0
 19 20  1  0  0  0  0
 20 21  1  0  0  0  0
 20 24  1  0  0  0  0
 21 22  1  0  0  0  0
 22 23  1  0  0  0  0
 22 26  1  0  0  0  0
 23 24  1  0  0  0  0
 24 25  2  0  0  0  0
M  END
>  <Name_Molregno>
520792

>  <5-HT2A>
5.51

$$$$
520793
  Marvin  02231216192D 0   1.00000     0.00000     0

 22 24  0  0  1  0  0  0  0  0999 V2000
   -4.0164   -0.7475    0.0000 F   0  0  0  0  0  0  0  0  0
   -4.0164    0.0775    0.0000 C   0  0  0  0  0  0  0  0  0
   -4.7308    0.4900    0.0000 C   0  0  0  0  0  0  0  0  0
   -4.7308    1.3150    0.0000 C   0  0  0  0  0  0  0  0  0
   -5.4453    1.7275    0.0000 F   0  0  0  0  0  0  0  0  0
   -4.0164    1.7275    0.0000 C   0  0  0  0  0  0  0  0  0
   -3.3019    1.3150    0.0000 C   0  0  0  0  0  0  0  0  0
   -3.3019    0.4900    0.0000 C   0  0  0  0  0  0  0  0  0
   -2.5874    0.0775    0.0000 C   0  0  0  0  0  0  0  0  0
   -1.8730    0.4900    0.0000 C   0  0  0  0  0  0  0  0  0
   -1.1585    0.0775    0.0000 C   0  0  0  0  0  0  0  0  0
   -1.1585   -0.7475    0.0000 C   0  0  0  0  0  0  0  0  0
   -1.8730   -1.1600    0.0000 C   0  0  0  0  0  0  0  0  0
   -2.5874   -0.7475    0.0000 C   0  0  0  0  0  0  0  0  0
   -0.4440   -1.1600    0.0000 C   0  0  0  0  0  0  0  0  0
   -0.4440   -1.9850    0.0000 N   0  0  0  0  0  0  0  0  0
    0.2234   -2.4700    0.0000 C   0  0  0  0  0  0  0  0  0
   -0.0315   -3.2546    0.0000 C   0  0  0  0  0  0  0  0  0
   -0.8565   -3.2546    0.0000 O   0  0  0  0  0  0  0  0  0
   -1.1114   -2.4700    0.0000 C   0  0  0  0  0  0  0  0  0
   -1.8961   -2.2150    0.0000 O   0  0  0  0  0  0  0  0  0
    0.4534   -3.9220    0.0000 C   0  0  0  0  0  0  0  0  0
  1  2  1  0  0  0  0
  2  3  4  0  0  0  0
  2  8  4  0  0  0  0
  3  4  4  0  0  0  0
  4  5  1  0  0  0  0
  4  6  4  0  0  0  0
  6  7  4  0  0  0  0
  7  8  4  0  0  0  0
  8  9  1  0  0  0  0
  9 10  4  0  0  0  0
  9 14  4  0  0  0  0
 10 11  4  0  0  0  0
 11 12  4  0  0  0  0
 12 13  4  0  0  0  0
 12 15  1  0  0  0  0
 13 14  4  0  0  0  0
 15 16  1  0  0  0  0
 16 17  1  0  0  0  0
 16 20  1  0  0  0  0
 17 18  1  0  0  0  0
 18 19  1  0  0  0  0
 18 22  1  0  0  0  0
 19 20  1  0  0  0  0
 20 21  2  0  0  0  0
M  END
>  <Name_Molregno>
520793

>  <5-HT2A>
6.49

$$$$
520864
  Marvin  02231216192D 0   1.00000     0.00000     0

 26 28  0  0  1  0  0  0  0  0999 V2000
   -2.9720   -1.6868    0.0000 F   0  0  0  0  0  0  0  0  0
   -2.9720   -0.8618    0.0000 C   0  0  0  0  0  0  0  0  0
   -3.6865   -0.4493    0.0000 C   0  0  0  0  0  0  0  0  0
   -3.6865    0.3757    0.0000 C   0  0  0  0  0  0  0  0  0
   -4.4009    0.7882    0.0000 O   0  0  0  0  0  0  0  0  0
   -4.4009    1.6132    0.0000 C   0  0  0  0  0  0  0  0  0
   -4.4009    2.4382    0.0000 F   0  0  0  0  0  0  0  0  0
   -5.2259    1.6132    0.0000 F   0  0  0  0  0  0  0  0  0
   -3.5759    1.6132    0.0000 F   0  0  0  0  0  0  0  0  0
   -2.9720    0.7882    0.0000 C   0  0  0  0  0  0  0  0  0
   -2.2575    0.3757    0.0000 C   0  0  0  0  0  0  0  0  0
   -2.2575   -0.4493    0.0000 C   0  0  0  0  0  0  0  0  0
   -1.5430   -0.8618    0.0000 C   0  0  0  0  0  0  0  0  0
   -0.8286   -0.4493    0.0000 N   0  0  0  0  0  0  0  0  0
   -0.1141   -0.8618    0.0000 C   0  0  0  0  0  0  0  0  0
   -0.1141   -1.6868    0.0000 C   0  0  0  0  0  0  0  0  0
   -0.8286   -2.0993    0.0000 C   0  0  0  0  0  0  0  0  0
   -1.5430   -1.6868    0.0000 C   0  0  0  0  0  0  0  0  0
    0.6004   -2.0993    0.0000 C   0  0  0  0  0  0  0  0  0
    0.6004   -2.9243    0.0000 N   0  0  0  0  0  0  0  0  0
    1.2678   -3.4092    0.0000 C   0  0  0  0  0  0  0  0  0
    1.0129   -4.1938    0.0000 C   0  0  0  0  0  0  0  0  0
    0.1879   -4.1938    0.0000 O   0  0  0  0  0  0  0  0  0
   -0.0671   -3.4092    0.0000 C   0  0  0  0  0  0  0  0  0
   -0.8517   -3.1542    0.0000 O   0  0  0  0  0  0  0  0  0
    1.4978   -4.8612    0.0000 C   0  0  0  0  0  0  0  0  0
  1  2  1  0  0  0  0
  2  3  4  0  0  0  0
  2 12  4  0  0  0  0
  3  4  4  0  0  0  0
  4  5  1  0  0  0  0
  4 10  4  0  0  0  0
  5  6  1  0  0  0  0
  6  7  1  0  0  0  0
  6  8  1  0  0  0  0
  6  9  1  0  0  0  0
 10 11  4  0  0  0  0
 11 12  4  0  0  0  0
 12 13  1  0  0  0  0
 13 14  4  0  0  0  0
 13 18  4  0  0  0  0
 14 15  4  0  0  0  0
 15 16  4  0  0  0  0
 16 17  4  0  0  0  0
 16 19  1  0  0  0  0
 17 18  4  0  0  0  0
 19 20  1  0  0  0  0
 20 21  1  0  0  0  0
 20 24  1  0  0  0  0
 21 22  1  0  0  0  0
 22 23  1  0  0  0  0
 22 26  1  0  0  0  0
 23 24  1  0  0  0  0
 24 25  2  0  0  0  0
M  END
>  <Name_Molregno>
520864

>  <5-HT2A>
5.51

$$$$
520866
  Marvin  02231216192D 0   1.00000     0.00000     0

 22 24  0  0  1  0  0  0  0  0999 V2000
    1.7577    3.1021    0.0000 F   0  0  0  0  0  0  0  0  0
    1.7577    2.2771    0.0000 C   0  0  0  0  0  0  0  0  0
    2.4722    1.8646    0.0000 C   0  0  0  0  0  0  0  0  0
    2.4722    1.0396    0.0000 C   0  0  0  0  0  0  0  0  0
    1.7577    0.6271    0.0000 C   0  0  0  0  0  0  0  0  0
    1.0432    1.0396    0.0000 C   0  0  0  0  0  0  0  0  0
    1.0432    1.8646    0.0000 C   0  0  0  0  0  0  0  0  0
    0.3288    2.2771    0.0000 F   0  0  0  0  0  0  0  0  0
    3.1867    0.6271    0.0000 C   0  0  0  0  0  0  0  0  0
    3.9011    1.0396    0.0000 N   0  0  0  0  0  0  0  0  0
    4.6156    0.6271    0.0000 C   0  0  0  0  0  0  0  0  0
    4.6156   -0.1979    0.0000 C   0  0  0  0  0  0  0  0  0
    3.9011   -0.6104    0.0000 C   0  0  0  0  0  0  0  0  0
    3.1867   -0.1979    0.0000 C   0  0  0  0  0  0  0  0  0
    5.3301   -0.6104    0.0000 C   0  0  0  0  0  0  0  0  0
    5.3301   -1.4354    0.0000 N   0  0  0  0  0  0  0  0  0
    5.9975   -1.9203    0.0000 C   0  0  0  0  0  0  0  0  0
    5.7426   -2.7050    0.0000 C   0  0  0  0  0  0  0  0  0
    4.9176   -2.7050    0.0000 O   0  0  0  0  0  0  0  0  0
    4.6626   -1.9203    0.0000 C   0  0  0  0  0  0  0  0  0
    3.8780   -1.6654    0.0000 O   0  0  0  0  0  0  0  0  0
    6.2275   -3.3724    0.0000 C   0  0  0  0  0  0  0  0  0
  1  2  1  0  0  0  0
  2  3  4  0  0  0  0
  2  7  4  0  0  0  0
  3  4  4  0  0  0  0
  4  5  4  0  0  0  0
  4  9  1  0  0  0  0
  5  6  4  0  0  0  0
  6  7  4  0  0  0  0
  7  8  1  0  0  0  0
  9 10  4  0  0  0  0
  9 14  4  0  0  0  0
 10 11  4  0  0  0  0
 11 12  4  0  0  0  0
 12 13  4  0  0  0  0
 12 15  1  0  0  0  0
 13 14  4  0  0  0  0
 15 16  1  0  0  0  0
 16 17  1  0  0  0  0
 16 20  1  0  0  0  0
 17 18  1  0  0  0  0
 18 19  1  0  0  0  0
 18 22  1  0  0  0  0
 19 20  1  0  0  0  0
 20 21  2  0  0  0  0
M  END
>  <Name_Molregno>
520866

>  <5-HT2A>
5.51

$$$$
522392
  Marvin  02231216192D 0   1.00000     0.00000     0

 30 34  0  0  1  0  0  0  0  0999 V2000
   -2.3312   -2.9228    0.0000 S   0  0  0  0  0  0  0  0  0
   -2.4251   -2.1031    0.0000 O   0  0  0  0  0  0  0  0  0
   -1.5276   -2.7362    0.0000 O   0  0  0  0  0  0  0  0  0
   -3.1562   -2.9228    0.0000 N   0  0  0  0  0  0  0  0  0
   -3.4562   -3.7799    0.0000 C   0  0  0  0  0  0  0  0  0
   -2.7437   -4.1924    0.0000 C   0  0  0  0  0  0  0  0  0
   -2.7437   -5.0174    0.0000 C   0  0  0  0  0  0  0  0  0
   -3.4562   -5.4299    0.0000 C   0  0  0  0  0  0  0  0  0
   -4.1687   -5.0174    0.0000 C   0  0  0  0  0  0  0  0  0
   -4.1687   -4.1924    0.0000 C   0  0  0  0  0  0  0  0  0
   -2.0258   -5.4299    0.0000 C   0  0  0  0  0  0  0  0  0
   -1.3133   -5.0174    0.0000 C   0  0  0  0  0  0  0  0  0
   -1.3133   -4.1924    0.0000 C   0  0  0  0  0  0  0  0  0
   -2.0258   -3.7799    0.0000 C   0  0  0  0  0  0  0  0  0
   -3.6336   -2.2499    0.0000 C   0  0  0  0  0  0  0  0  0
   -3.2895   -1.5001    0.0000 C   0  0  0  0  0  0  0  0  0
   -3.7669   -0.8272    0.0000 C   0  0  0  0  0  0  0  0  0
   -3.4229   -0.0774    0.0000 N   0  0  0  0  0  0  0  0  0
   -3.9003    0.5955    0.0000 C   0  0  0  0  0  0  0  0  0
   -3.5562    1.3453    0.0000 C   0  0  0  0  0  0  0  0  0
   -2.7348    1.4223    0.0000 N   0  0  0  0  0  0  0  0  0
   -2.2575    0.7495    0.0000 C   0  0  0  0  0  0  0  0  0
   -2.6015   -0.0004    0.0000 C   0  0  0  0  0  0  0  0  0
   -2.3908    2.1722    0.0000 C   0  0  0  0  0  0  0  0  0
   -2.8682    2.8450    0.0000 C   0  0  0  0  0  0  0  0  0
   -2.5242    3.5949    0.0000 C   0  0  0  0  0  0  0  0  0
   -1.7028    3.6719    0.0000 C   0  0  0  0  0  0  0  0  0
   -1.3588    4.4217    0.0000 F   0  0  0  0  0  0  0  0  0
   -1.2254    2.9990    0.0000 C   0  0  0  0  0  0  0  0  0
   -1.5694    2.2492    0.0000 C   0  0  0  0  0  0  0  0  0
  1  2  2  0  0  0  0
  1  3  2  0  0  0  0
  1  4  1  0  0  0  0
  1 14  1  0  0  0  0
  4  5  1  0  0  0  0
  4 15  1  0  0  0  0
  5  6  1  0  0  0  0
  5 10  1  0  0  0  0
  6  7  1  0  0  0  0
  6 14  1  0  0  0  0
  7  8  2  0  0  0  0
  7 11  1  0  0  0  0
  8  9  1  0  0  0  0
  9 10  2  0  0  0  0
 11 12  2  0  0  0  0
 12 13  1  0  0  0  0
 13 14  2  0  0  0  0
 15 16  1  0  0  0  0
 16 17  1  0  0  0  0
 17 18  1  0  0  0  0
 18 19  1  0  0  0  0
 18 23  1  0  0  0  0
 19 20  1  0  0  0  0
 20 21  1  0  0  0  0
 21 22  1  0  0  0  0
 21 24  1  0  0  0  0
 22 23  1  0  0  0  0
 24 25  4  0  0  0  0
 24 30  4  0  0  0  0
 25 26  4  0  0  0  0
 26 27  4  0  0  0  0
 27 28  1  0  0  0  0
 27 29  4  0  0  0  0
 29 30  4  0  0  0  0
M  END
>  <Name_Molregno>
522392

>  <5-HT2A>
9.92

>  <DOPAMINE D4>
8.54

$$$$
549680
  Marvin  02231216192D 0   1.00000     0.00000     0

 31 35  0  0  0  0  0  0  0  0999 V2000
   -2.4430    0.1911    0.0000 O   0  0  0  0  0  0  0  0  0
   -3.2224    0.4615    0.0000 C   0  0  0  0  0  0  0  0  0
   -3.3780    1.2716    0.0000 C   0  0  0  0  0  0  0  0  0
   -4.1575    1.5420    0.0000 N   0  0  0  0  0  0  0  0  0
   -4.7813    1.0022    0.0000 C   0  0  0  0  0  0  0  0  0
   -5.5608    1.2725    0.0000 C   0  0  0  0  0  0  0  0  0
   -5.7164    2.0827    0.0000 C   0  0  0  0  0  0  0  0  0
   -5.0925    2.6226    0.0000 C   0  0  0  0  0  0  0  0  0
   -4.3131    2.3522    0.0000 C   0  0  0  0  0  0  0  0  0
   -2.2874   -0.6191    0.0000 C   0  0  0  0  0  0  0  0  0
   -1.5080   -0.8895    0.0000 C   0  0  0  0  0  0  0  0  0
   -1.3524   -1.6997    0.0000 C   0  0  0  0  0  0  0  0  0
   -0.5729   -1.9700    0.0000 N   0  0  0  0  0  0  0  0  0
   -0.3335   -2.7595    0.0000 C   0  0  0  0  0  0  0  0  0
    0.4913   -2.7758    0.0000 C   0  0  0  0  0  0  0  0  0
    1.1491   -3.2738    0.0000 N   0  0  0  0  0  0  0  0  0
    1.8259   -2.8021    0.0000 C   0  0  0  0  0  0  0  0  0
    1.5865   -2.0126    0.0000 C   0  0  0  0  0  0  0  0  0
    0.7617   -1.9963    0.0000 C   0  0  0  0  0  0  0  0  0
    0.1039   -1.4983    0.0000 C   0  0  0  0  0  0  0  0  0
    0.1202   -0.6735    0.0000 O   0  0  0  0  0  0  0  0  0
    2.1505   -1.4105    0.0000 C   0  0  0  0  0  0  0  0  0
    2.9540   -1.5979    0.0000 C   0  0  0  0  0  0  0  0  0
    3.1934   -2.3874    0.0000 C   0  0  0  0  0  0  0  0  0
    2.6294   -2.9895    0.0000 C   0  0  0  0  0  0  0  0  0
    1.1328   -4.0986    0.0000 C   0  0  0  0  0  0  0  0  0
   -1.9762   -2.2395    0.0000 C   0  0  0  0  0  0  0  0  0
   -2.7557   -1.9691    0.0000 C   0  0  0  0  0  0  0  0  0
   -2.9113   -1.1589    0.0000 C   0  0  0  0  0  0  0  0  0
   -3.6907   -0.8886    0.0000 O   0  0  0  0  0  0  0  0  0
   -4.3146   -1.4284    0.0000 C   0  0  0  0  0  0  0  0  0
  1  2  1  0  0  0  0
  1 10  1  0  0  0  0
  2  3  1  0  0  0  0
  3  4  1  0  0  0  0
  4  5  1  0  0  0  0
  4  9  1  0  0  0  0
  5  6  1  0  0  0  0
  6  7  1  0  0  0  0
  7  8  1  0  0  0  0
  8  9  1  0  0  0  0
 10 11  4  0  0  0  0
 10 29  4  0  0  0  0
 11 12  4  0  0  0  0
 12 13  1  0  0  0  0
 12 27  4  0  0  0  0
 13 14  1  0  0  0  0
 13 20  1  0  0  0  0
 14 15  1  0  0  0  0
 15 16  4  0  0  0  0
 15 19  4  0  0  0  0
 16 17  4  0  0  0  0
 16 26  1  0  0  0  0
 17 18  4  0  0  0  0
 17 25  4  0  0  0  0
 18 19  4  0  0  0  0
 18 22  4  0  0  0  0
 19 20  1  0  0  0  0
 20 21  2  0  0  0  0
 22 23  4  0  0  0  0
 23 24  4  0  0  0  0
 24 25  4  0  0  0  0
 27 28  4  0  0  0  0
 28 29  4  0  0  0  0
 29 30  1  0  0  0  0
 30 31  1  0  0  0  0
M  END
>  <Name_Molregno>
549680

>  <5-HT2A>
6.3

>  <5-HT2C>
8.2

$$$$
557401
  Marvin  02231216192D 0   1.00000     0.00000     0

 22 24  0  0  0  0  0  0  0  0999 V2000
    5.1591   -2.1101    0.0000 F   0  0  0  0  0  0  0  0  0
    4.6071   -1.4970    0.0000 C   0  0  0  0  0  0  0  0  0
    3.8001   -1.6685    0.0000 C   0  0  0  0  0  0  0  0  0
    3.2481   -1.0554    0.0000 C   0  0  0  0  0  0  0  0  0
    3.5030   -0.2708    0.0000 C   0  0  0  0  0  0  0  0  0
    4.3100   -0.0993    0.0000 C   0  0  0  0  0  0  0  0  0
    4.8620   -0.7123    0.0000 C   0  0  0  0  0  0  0  0  0
    2.9510    0.3423    0.0000 C   0  0  0  0  0  0  0  0  0
    3.2059    1.1269    0.0000 C   0  0  0  0  0  0  0  0  0
    3.9906    1.3819    0.0000 C   0  0  0  0  0  0  0  0  0
    3.9906    2.2069    0.0000 C   0  0  0  0  0  0  0  0  0
    3.2059    2.4618    0.0000 C   0  0  0  0  0  0  0  0  0
    2.7210    1.7944    0.0000 C   0  0  0  0  0  0  0  0  0
    1.8960    1.7944    0.0000 C   0  0  0  0  0  0  0  0  0
    1.4835    1.0799    0.0000 C   0  0  0  0  0  0  0  0  0
    0.6585    1.0799    0.0000 N   0  0  0  0  0  0  0  0  0
    0.2460    0.3654    0.0000 C   0  0  0  0  0  0  0  0  0
    0.2460    1.7944    0.0000 C   0  0  0  0  0  0  0  0  0
    4.7050    2.6194    0.0000 C   0  0  0  0  0  0  0  0  0
    5.4195    2.2069    0.0000 C   0  0  0  0  0  0  0  0  0
    5.4195    1.3819    0.0000 C   0  0  0  0  0  0  0  0  0
    4.7050    0.9694    0.0000 C   0  0  0  0  0  0  0  0  0
  1  2  1  0  0  0  0
  2  3  4  0  0  0  0
  2  7  4  0  0  0  0
  3  4  4  0  0  0  0
  4  5  4  0  0  0  0
  5  6  4  0  0  0  0
  5  8  1  0  0  0  0
  6  7  4  0  0  0  0
  8  9  1  0  0  0  0
  9 10  1  0  0  0  0
  9 13  2  0  0  0  0
 10 11  4  0  0  0  0
 10 22  4  0  0  0  0
 11 12  1  0  0  0  0
 11 19  4  0  0  0  0
 12 13  1  0  0  0  0
 13 14  1  0  0  0  0
 14 15  1  0  0  0  0
 15 16  1  0  0  0  0
 16 17  1  0  0  0  0
 16 18  1  0  0  0  0
 19 20  4  0  0  0  0
 20 21  4  0  0  0  0
 21 22  4  0  0  0  0
M  END
>  <Name_Molregno>
557401

>  <5-HT2A>
9.85

>  <HISTAMINE H1>
9.22

$$$$
558477
  Marvin  02231216192D 0   1.00000     0.00000     0

 24 27  0  0  0  0  0  0  0  0999 V2000
   -0.0829   -0.6370    0.0000 Cl  0  0  0  0  0  0  0  0  0
    0.6708   -0.9726    0.0000 C   0  0  0  0  0  0  0  0  0
    1.3382   -0.4877    0.0000 C   0  0  0  0  0  0  0  0  0
    2.0919   -0.8232    0.0000 C   0  0  0  0  0  0  0  0  0
    2.7593   -0.3383    0.0000 N   0  0  0  0  0  0  0  0  0
    2.7593    0.4867    0.0000 C   0  0  0  0  0  0  0  0  0
    3.5440    0.7416    0.0000 C   0  0  0  0  0  0  0  0  0
    4.0289    0.0742    0.0000 N   0  0  0  0  0  0  0  0  0
    4.8539    0.0742    0.0000 C   0  0  0  0  0  0  0  0  0
    5.2664    0.7887    0.0000 C   0  0  0  0  0  0  0  0  0
    6.0914    0.7887    0.0000 N   0  0  0  0  0  0  0  0  0
    6.5763    0.1212    0.0000 C   0  0  0  0  0  0  0  0  0
    7.3609    0.3762    0.0000 C   0  0  0  0  0  0  0  0  0
    7.3609    1.2012    0.0000 C   0  0  0  0  0  0  0  0  0
    6.5763    1.4561    0.0000 C   0  0  0  0  0  0  0  0  0
    8.0754    1.6137    0.0000 C   0  0  0  0  0  0  0  0  0
    8.7899    1.2012    0.0000 C   0  0  0  0  0  0  0  0  0
    8.7899    0.3762    0.0000 C   0  0  0  0  0  0  0  0  0
    8.0754   -0.0363    0.0000 C   0  0  0  0  0  0  0  0  0
    3.5440   -0.5933    0.0000 C   0  0  0  0  0  0  0  0  0
    3.7989   -1.3779    0.0000 O   0  0  0  0  0  0  0  0  0
    2.1781   -1.6437    0.0000 C   0  0  0  0  0  0  0  0  0
    1.5107   -2.1286    0.0000 C   0  0  0  0  0  0  0  0  0
    0.7570   -1.7931    0.0000 C   0  0  0  0  0  0  0  0  0
  1  2  1  0  0  0  0
  2  3  4  0  0  0  0
  2 24  4  0  0  0  0
  3  4  4  0  0  0  0
  4  5  1  0  0  0  0
  4 22  4  0  0  0  0
  5  6  1  0  0  0  0
  5 20  1  0  0  0  0
  6  7  1  0  0  0  0
  7  8  1  0  0  0  0
  8  9  1  0  0  0  0
  8 20  1  0  0  0  0
  9 10  1  0  0  0  0
 10 11  1  0  0  0  0
 11 12  1  0  0  0  0
 11 15  1  0  0  0  0
 12 13  1  0  0  0  0
 13 14  4  0  0  0  0
 13 19  4  0  0  0  0
 14 15  1  0  0  0  0
 14 16  4  0  0  0  0
 16 17  4  0  0  0  0
 17 18  4  0  0  0  0
 18 19  4  0  0  0  0
 20 21  2  0  0  0  0
 22 23  4  0  0  0  0
 23 24  4  0  0  0  0
M  END
>  <Name_Molregno>
558477

>  <5-HT2A>
6.2

>  <DOPAMINE D2>
7

>  <DOPAMINE D3>
8.6

$$$$
562713
  Marvin  02231216192D 0   1.00000     0.00000     0

 22 24  0  0  0  0  0  0  0  0999 V2000
   -1.5883   -1.0729    0.0000 S   0  0  0  0  0  0  0  0  0
   -0.8037   -0.8179    0.0000 C   0  0  0  0  0  0  0  0  0
   -0.8037    0.0071    0.0000 C   0  0  0  0  0  0  0  0  0
   -0.0892    0.4196    0.0000 C   0  0  0  0  0  0  0  0  0
    0.6253    0.0071    0.0000 C   0  0  0  0  0  0  0  0  0
    0.6253   -0.8179    0.0000 C   0  0  0  0  0  0  0  0  0
   -0.0892   -1.2304    0.0000 C   0  0  0  0  0  0  0  0  0
   -1.5883    0.2620    0.0000 C   0  0  0  0  0  0  0  0  0
   -1.8432    1.0466    0.0000 C   0  0  0  0  0  0  0  0  0
   -1.2912    1.6597    0.0000 C   0  0  0  0  0  0  0  0  0
   -1.5461    2.4443    0.0000 C   0  0  0  0  0  0  0  0  0
   -0.9941    3.0574    0.0000 C   0  0  0  0  0  0  0  0  0
   -0.1871    2.8859    0.0000 C   0  0  0  0  0  0  0  0  0
    0.3649    3.4990    0.0000 F   0  0  0  0  0  0  0  0  0
    0.0678    2.1013    0.0000 C   0  0  0  0  0  0  0  0  0
   -0.4842    1.4882    0.0000 C   0  0  0  0  0  0  0  0  0
   -2.0732   -0.4054    0.0000 C   0  0  0  0  0  0  0  0  0
   -2.8982   -0.4054    0.0000 C   0  0  0  0  0  0  0  0  0
   -3.3107   -1.1199    0.0000 C   0  0  0  0  0  0  0  0  0
   -4.1357   -1.1199    0.0000 N   0  0  0  0  0  0  0  0  0
   -4.5482   -1.8344    0.0000 C   0  0  0  0  0  0  0  0  0
   -4.5482   -0.4054    0.0000 C   0  0  0  0  0  0  0  0  0
  1  2  4  0  0  0  0
  1 17  4  0  0  0  0
  2  3  4  0  0  0  0
  2  7  4  0  0  0  0
  3  4  4  0  0  0  0
  3  8  4  0  0  0  0
  4  5  4  0  0  0  0
  5  6  4  0  0  0  0
  6  7  4  0  0  0  0
  8  9  1  0  0  0  0
  8 17  4  0  0  0  0
  9 10  1  0  0  0  0
 10 11  4  0  0  0  0
 10 16  4  0  0  0  0
 11 12  4  0  0  0  0
 12 13  4  0  0  0  0
 13 14  1  0  0  0  0
 13 15  4  0  0  0  0
 15 16  4  0  0  0  0
 17 18  1  0  0  0  0
 18 19  1  0  0  0  0
 19 20  1  0  0  0  0
 20 21  1  0  0  0  0
 20 22  1  0  0  0  0
M  END
>  <Name_Molregno>
562713

>  <5-HT2A>
10.05

>  <HISTAMINE H1>
7.96

>  <Muscarinic acetylcholine receptor M1>
8.7

$$$$
566207
  Marvin  02231216192D 0   1.00000     0.00000     0

 21 23  0  0  0  0  0  0  0  0999 V2000
    2.5436   -0.8872    0.0000 N   0  0  0  0  0  0  0  0  0
    3.0956   -1.5003    0.0000 C   0  0  0  0  0  0  0  0  0
    2.8407   -2.2850    0.0000 C   0  0  0  0  0  0  0  0  0
    2.0337   -2.4565    0.0000 N   0  0  0  0  0  0  0  0  0
    1.4817   -1.8434    0.0000 C   0  0  0  0  0  0  0  0  0
    1.7366   -1.0588    0.0000 C   0  0  0  0  0  0  0  0  0
    1.1846   -0.4457    0.0000 C   0  0  0  0  0  0  0  0  0
    1.4395    0.3390    0.0000 C   0  0  0  0  0  0  0  0  0
    2.2242    0.5939    0.0000 C   0  0  0  0  0  0  0  0  0
    2.2242    1.4189    0.0000 C   0  0  0  0  0  0  0  0  0
    1.4395    1.6738    0.0000 C   0  0  0  0  0  0  0  0  0
    0.9546    1.0064    0.0000 C   0  0  0  0  0  0  0  0  0
    0.1296    1.0064    0.0000 C   0  0  0  0  0  0  0  0  0
   -0.2829    0.2919    0.0000 C   0  0  0  0  0  0  0  0  0
   -1.1079    0.2919    0.0000 N   0  0  0  0  0  0  0  0  0
   -1.5204   -0.4225    0.0000 C   0  0  0  0  0  0  0  0  0
   -1.5204    1.0064    0.0000 C   0  0  0  0  0  0  0  0  0
    2.9386    1.8314    0.0000 C   0  0  0  0  0  0  0  0  0
    3.6531    1.4189    0.0000 C   0  0  0  0  0  0  0  0  0
    3.6531    0.5939    0.0000 C   0  0  0  0  0  0  0  0  0
    2.9386    0.1814    0.0000 C   0  0  0  0  0  0  0  0  0
  1  2  4  0  0  0  0
  1  6  4  0  0  0  0
  2  3  4  0  0  0  0
  3  4  4  0  0  0  0
  4  5  4  0  0  0  0
  5  6  4  0  0  0  0
  6  7  1  0  0  0  0
  7  8  1  0  0  0  0
  8  9  1  0  0  0  0
  8 12  2  0  0  0  0
  9 10  4  0  0  0  0
  9 21  4  0  0  0  0
 10 11  1  0  0  0  0
 10 18  4  0  0  0  0
 11 12  1  0  0  0  0
 12 13  1  0  0  0  0
 13 14  1  0  0  0  0
 14 15  1  0  0  0  0
 15 16  1  0  0  0  0
 15 17  1  0  0  0  0
 18 19  4  0  0  0  0
 19 20  4  0  0  0  0
 20 21  4  0  0  0  0
M  END
>  <Name_Molregno>
566207

>  <5-HT2A>
9.22

>  <HISTAMINE H1>
8.4

>  <Muscarinic acetylcholine receptor M1>
7.72

$$$$
572197
  Marvin  02231216192D 0   1.00000     0.00000     0

 34 39  0  0  1  0  0  0  0  0999 V2000
    1.8955   -3.1153    0.0000 F   0  0  0  0  0  0  0  0  0
    2.1504   -2.3307    0.0000 C   0  0  0  0  0  0  0  0  0
    1.5984   -1.7176    0.0000 C   0  0  0  0  0  0  0  0  0
    1.8533   -0.9329    0.0000 C   0  0  0  0  0  0  0  0  0
    1.4408   -0.2185    0.0000 O   0  0  0  0  0  0  0  0  0
    1.9929    0.3946    0.0000 N   0  0  0  0  0  0  0  0  0
    2.7465    0.0591    0.0000 C   0  0  0  0  0  0  0  0  0
    2.6603   -0.7614    0.0000 C   0  0  0  0  0  0  0  0  0
    3.2123   -1.3745    0.0000 C   0  0  0  0  0  0  0  0  0
    2.9574   -2.1591    0.0000 C   0  0  0  0  0  0  0  0  0
    3.4610    0.4716    0.0000 C   0  0  0  0  0  0  0  0  0
    3.4610    1.2966    0.0000 C   0  0  0  0  0  0  0  0  0
    4.1755    1.7091    0.0000 C   0  0  0  0  0  0  0  0  0
    4.8900    1.2966    0.0000 N   0  0  0  0  0  0  0  0  0
    4.8900    0.4716    0.0000 C   0  0  0  0  0  0  0  0  0
    4.1755    0.0591    0.0000 C   0  0  0  0  0  0  0  0  0
    5.6044    1.7091    0.0000 C   0  0  0  0  0  0  0  0  0
    6.3189    1.2966    0.0000 C   0  0  0  0  0  0  0  0  0
    6.3189    0.4716    0.0000 C   0  0  0  0  0  0  0  0  0
    7.0334    0.0591    0.0000 C   0  0  0  0  0  0  0  0  0
    7.0334   -0.7659    0.0000 O   0  0  0  0  0  0  0  0  0
    7.7478    0.4716    0.0000 C   0  0  0  0  0  0  0  0  0
    7.7478    1.2966    0.0000 C   0  0  0  0  0  0  0  0  0
    8.4623    1.7091    0.0000 N   0  0  0  0  0  0  0  0  0
    9.1768    1.2966    0.0000 C   0  0  0  0  0  0  0  0  0
    9.1768    0.4716    0.0000 N   0  0  0  0  0  0  0  0  0
    8.4623    0.0591    0.0000 C   0  0  0  0  0  0  0  0  0
    9.8912    1.7091    0.0000 C   0  0  0  0  0  0  0  0  0
    9.8912    2.5341    0.0000 C   0  0  0  0  0  0  0  0  0
   10.6057    2.9466    0.0000 C   0  0  0  0  0  0  0  0  0
   11.3202    2.5341    0.0000 C   0  0  0  0  0  0  0  0  0
   11.3202    1.7091    0.0000 C   0  0  0  0  0  0  0  0  0
   10.6057    1.2966    0.0000 C   0  0  0  0  0  0  0  0  0
    7.0334    1.7091    0.0000 C   0  0  0  0  0  0  0  0  0
  1  2  1  0  0  0  0
  2  3  4  0  0  0  0
  2 10  4  0  0  0  0
  3  4  4  0  0  0  0
  4  5  4  0  0  0  0
  4  8  4  0  0  0  0
  5  6  4  0  0  0  0
  6  7  4  0  0  0  0
  7  8  4  0  0  0  0
  7 11  1  0  0  0  0
  8  9  4  0  0  0  0
  9 10  4  0  0  0  0
 11 12  1  0  0  0  0
 11 16  1  0  0  0  0
 12 13  1  0  0  0  0
 13 14  1  0  0  0  0
 14 15  1  0  0  0  0
 14 17  1  0  0  0  0
 15 16  1  0  0  0  0
 17 18  1  0  0  0  0
 18 19  1  0  0  0  0
 18 34  1  0  0  0  0
 19 20  1  0  0  0  0
 20 21  2  0  0  0  0
 20 22  1  0  0  0  0
 22 23  4  0  0  0  0
 22 27  4  0  0  0  0
 23 24  4  0  0  0  0
 23 34  1  0  0  0  0
 24 25  4  0  0  0  0
 25 26  4  0  0  0  0
 25 28  1  0  0  0  0
 26 27  4  0  0  0  0
 28 29  4  0  0  0  0
 28 33  4  0  0  0  0
 29 30  4  0  0  0  0
 30 31  4  0  0  0  0
 31 32  4  0  0  0  0
 32 33  4  0  0  0  0
M  END
>  <Name_Molregno>
572197

>  <5-HT2A>
6.9

>  <DOPAMINE D2>
7.47

$$$$
572263
  Marvin  02231216192D 0   1.00000     0.00000     0

 27 30  0  0  1  0  0  0  0  0999 V2000
    1.4284    4.5465    0.0000 F   0  0  0  0  0  0  0  0  0
    2.1429    4.1340    0.0000 C   0  0  0  0  0  0  0  0  0
    2.8574    4.5465    0.0000 C   0  0  0  0  0  0  0  0  0
    3.5718    4.1340    0.0000 C   0  0  0  0  0  0  0  0  0
    3.5718    3.3090    0.0000 C   0  0  0  0  0  0  0  0  0
    2.8574    2.8965    0.0000 C   0  0  0  0  0  0  0  0  0
    2.1429    3.3090    0.0000 C   0  0  0  0  0  0  0  0  0
    4.2863    2.8965    0.0000 C   0  0  0  0  0  0  0  0  0
    5.0008    3.3090    0.0000 O   0  0  0  0  0  0  0  0  0
    4.2863    2.0715    0.0000 C   0  0  0  0  0  0  0  0  0
    5.0008    1.6590    0.0000 C   0  0  0  0  0  0  0  0  0
    5.0008    0.8340    0.0000 C   0  0  0  0  0  0  0  0  0
    4.2863    0.4215    0.0000 N   0  0  0  0  0  0  0  0  0
    3.5718    0.8340    0.0000 C   0  0  0  0  0  0  0  0  0
    3.5718    1.6590    0.0000 C   0  0  0  0  0  0  0  0  0
    4.2863   -0.4035    0.0000 C   0  0  0  0  0  0  0  0  0
    5.0008   -0.8160    0.0000 C   0  0  0  0  0  0  0  0  0
    5.0008   -1.6410    0.0000 C   0  0  0  0  0  0  0  0  0
    5.7152   -2.0535    0.0000 C   0  0  0  0  0  0  0  0  0
    5.7152   -2.8785    0.0000 O   0  0  0  0  0  0  0  0  0
    6.4297   -1.6410    0.0000 C   0  0  0  0  0  0  0  0  0
    6.4297   -0.8160    0.0000 C   0  0  0  0  0  0  0  0  0
    7.1442   -0.4035    0.0000 N   0  0  0  0  0  0  0  0  0
    7.8587   -0.8160    0.0000 C   0  0  0  0  0  0  0  0  0
    7.8587   -1.6410    0.0000 N   0  0  0  0  0  0  0  0  0
    7.1442   -2.0535    0.0000 C   0  0  0  0  0  0  0  0  0
    5.7152   -0.4035    0.0000 C   0  0  0  0  0  0  0  0  0
  1  2  1  0  0  0  0
  2  3  4  0  0  0  0
  2  7  4  0  0  0  0
  3  4  4  0  0  0  0
  4  5  4  0  0  0  0
  5  6  4  0  0  0  0
  5  8  1  0  0  0  0
  6  7  4  0  0  0  0
  8  9  2  0  0  0  0
  8 10  1  0  0  0  0
 10 11  1  0  0  0  0
 10 15  1  0  0  0  0
 11 12  1  0  0  0  0
 12 13  1  0  0  0  0
 13 14  1  0  0  0  0
 13 16  1  0  0  0  0
 14 15  1  0  0  0  0
 16 17  1  0  0  0  0
 17 18  1  0  0  0  0
 17 27  1  0  0  0  0
 18 19  1  0  0  0  0
 19 20  2  0  0  0  0
 19 21  1  0  0  0  0
 21 22  4  0  0  0  0
 21 26  4  0  0  0  0
 22 23  4  0  0  0  0
 22 27  1  0  0  0  0
 23 24  4  0  0  0  0
 24 25  4  0  0  0  0
 25 26  4  0  0  0  0
M  END
>  <Name_Molregno>
572263

>  <5-HT2A>
6.51

>  <DOPAMINE D2>
6.2

$$$$
572290
  Marvin  02231216192D 0   1.00000     0.00000     0

 28 32  0  0  1  0  0  0  0  0999 V2000
    2.0491    4.6570    0.0000 F   0  0  0  0  0  0  0  0  0
    2.6011    4.0439    0.0000 C   0  0  0  0  0  0  0  0  0
    3.4081    4.2154    0.0000 C   0  0  0  0  0  0  0  0  0
    3.9601    3.6023    0.0000 C   0  0  0  0  0  0  0  0  0
    4.7851    3.6023    0.0000 O   0  0  0  0  0  0  0  0  0
    5.0401    2.8177    0.0000 N   0  0  0  0  0  0  0  0  0
    4.3726    2.3328    0.0000 C   0  0  0  0  0  0  0  0  0
    3.7052    2.8177    0.0000 C   0  0  0  0  0  0  0  0  0
    2.8982    2.6462    0.0000 C   0  0  0  0  0  0  0  0  0
    2.3462    3.2593    0.0000 C   0  0  0  0  0  0  0  0  0
    4.3726    1.5078    0.0000 C   0  0  0  0  0  0  0  0  0
    5.0871    1.0953    0.0000 C   0  0  0  0  0  0  0  0  0
    5.0871    0.2703    0.0000 C   0  0  0  0  0  0  0  0  0
    4.3726   -0.1422    0.0000 N   0  0  0  0  0  0  0  0  0
    3.6582    0.2703    0.0000 C   0  0  0  0  0  0  0  0  0
    3.6582    1.0953    0.0000 C   0  0  0  0  0  0  0  0  0
    4.3726   -0.9672    0.0000 C   0  0  0  0  0  0  0  0  0
    5.0871   -1.3797    0.0000 C   0  0  0  0  0  0  0  0  0
    5.0871   -2.2047    0.0000 C   0  0  0  0  0  0  0  0  0
    5.8016   -2.6172    0.0000 C   0  0  0  0  0  0  0  0  0
    5.8016   -3.4422    0.0000 O   0  0  0  0  0  0  0  0  0
    6.5161   -2.2047    0.0000 C   0  0  0  0  0  0  0  0  0
    6.5161   -1.3797    0.0000 C   0  0  0  0  0  0  0  0  0
    7.2305   -0.9672    0.0000 N   0  0  0  0  0  0  0  0  0
    7.9450   -1.3797    0.0000 C   0  0  0  0  0  0  0  0  0
    7.9450   -2.2047    0.0000 N   0  0  0  0  0  0  0  0  0
    7.2305   -2.6172    0.0000 C   0  0  0  0  0  0  0  0  0
    5.8016   -0.9672    0.0000 C   0  0  0  0  0  0  0  0  0
  1  2  1  0  0  0  0
  2  3  4  0  0  0  0
  2 10  4  0  0  0  0
  3  4  4  0  0  0  0
  4  5  4  0  0  0  0
  4  8  4  0  0  0  0
  5  6  4  0  0  0  0
  6  7  4  0  0  0  0
  7  8  4  0  0  0  0
  7 11  1  0  0  0  0
  8  9  4  0  0  0  0
  9 10  4  0  0  0  0
 11 12  1  0  0  0  0
 11 16  1  0  0  0  0
 12 13  1  0  0  0  0
 13 14  1  0  0  0  0
 14 15  1  0  0  0  0
 14 17  1  0  0  0  0
 15 16  1  0  0  0  0
 17 18  1  0  0  0  0
 18 19  1  0  0  0  0
 18 28  1  0  0  0  0
 19 20  1  0  0  0  0
 20 21  2  0  0  0  0
 20 22  1  0  0  0  0
 22 23  4  0  0  0  0
 22 27  4  0  0  0  0
 23 24  4  0  0  0  0
 23 28  1  0  0  0  0
 24 25  4  0  0  0  0
 25 26  4  0  0  0  0
 26 27  4  0  0  0  0
M  END
>  <Name_Molregno>
572290

>  <5-HT2A>
7.63

>  <5-HT2C>
6.3

>  <DOPAMINE D1>
6.87

>  <DOPAMINE D2>
6.8

>  <DOPAMINE D3>
6.55

$$$$
572291
  Marvin  02231216192D 0   1.00000     0.00000     0

 29 32  0  0  1  0  0  0  0  0999 V2000
   -9.0186    0.6730    0.0000 S   0  0  0  0  0  0  0  0  0
   -9.7331    0.2605    0.0000 C   0  0  0  0  0  0  0  0  0
   -8.3042    0.2605    0.0000 C   0  0  0  0  0  0  0  0  0
   -7.5897    0.6730    0.0000 N   0  0  0  0  0  0  0  0  0
   -6.8752    0.2605    0.0000 C   0  0  0  0  0  0  0  0  0
   -6.1608    0.6730    0.0000 C   0  0  0  0  0  0  0  0  0
   -5.4463    0.2605    0.0000 C   0  0  0  0  0  0  0  0  0
   -5.4463   -0.5645    0.0000 C   0  0  0  0  0  0  0  0  0
   -6.1608   -0.9770    0.0000 C   0  0  0  0  0  0  0  0  0
   -6.1608   -1.8020    0.0000 O   0  0  0  0  0  0  0  0  0
   -6.8752   -0.5645    0.0000 C   0  0  0  0  0  0  0  0  0
   -7.5897   -0.9770    0.0000 C   0  0  0  0  0  0  0  0  0
   -8.3042   -0.5645    0.0000 N   0  0  0  0  0  0  0  0  0
   -4.7318    0.6730    0.0000 C   0  0  0  0  0  0  0  0  0
   -4.0173    0.2605    0.0000 N   0  0  0  0  0  0  0  0  0
   -3.3029    0.6730    0.0000 C   0  0  0  0  0  0  0  0  0
   -2.5884    0.2605    0.0000 C   0  0  0  0  0  0  0  0  0
   -2.5884   -0.5645    0.0000 C   0  0  0  0  0  0  0  0  0
   -3.3029   -0.9770    0.0000 C   0  0  0  0  0  0  0  0  0
   -4.0173   -0.5645    0.0000 C   0  0  0  0  0  0  0  0  0
   -1.8739   -0.9770    0.0000 C   0  0  0  0  0  0  0  0  0
   -1.1595   -0.5645    0.0000 O   0  0  0  0  0  0  0  0  0
   -1.8739   -1.8020    0.0000 C   0  0  0  0  0  0  0  0  0
   -1.1595   -2.2145    0.0000 C   0  0  0  0  0  0  0  0  0
   -1.1595   -3.0395    0.0000 C   0  0  0  0  0  0  0  0  0
   -1.8739   -3.4520    0.0000 C   0  0  0  0  0  0  0  0  0
   -1.8739   -4.2770    0.0000 F   0  0  0  0  0  0  0  0  0
   -2.5884   -3.0395    0.0000 C   0  0  0  0  0  0  0  0  0
   -2.5884   -2.2145    0.0000 C   0  0  0  0  0  0  0  0  0
  1  2  1  0  0  0  0
  1  3  1  0  0  0  0
  3  4  4  0  0  0  0
  3 13  4  0  0  0  0
  4  5  4  0  0  0  0
  5  6  1  0  0  0  0
  5 11  4  0  0  0  0
  6  7  1  0  0  0  0
  7  8  1  0  0  0  0
  7 14  1  0  0  0  0
  8  9  1  0  0  0  0
  9 10  2  0  0  0  0
  9 11  1  0  0  0  0
 11 12  4  0  0  0  0
 12 13  4  0  0  0  0
 14 15  1  0  0  0  0
 15 16  1  0  0  0  0
 15 20  1  0  0  0  0
 16 17  1  0  0  0  0
 17 18  1  0  0  0  0
 18 19  1  0  0  0  0
 18 21  1  0  0  0  0
 19 20  1  0  0  0  0
 21 22  2  0  0  0  0
 21 23  1  0  0  0  0
 23 24  4  0  0  0  0
 23 29  4  0  0  0  0
 24 25  4  0  0  0  0
 25 26  4  0  0  0  0
 26 27  1  0  0  0  0
 26 28  4  0  0  0  0
 28 29  4  0  0  0  0
M  END
>  <Name_Molregno>
572291

>  <5-HT2A>
6.99

$$$$
572298
  Marvin  02231216192D 0   1.00000     0.00000     0

 30 34  0  0  1  0  0  0  0  0999 V2000
   -7.7335    3.0117    0.0000 S   0  0  0  0  0  0  0  0  0
   -8.5405    3.1832    0.0000 C   0  0  0  0  0  0  0  0  0
   -7.4785    2.2271    0.0000 C   0  0  0  0  0  0  0  0  0
   -6.6716    2.0555    0.0000 N   0  0  0  0  0  0  0  0  0
   -6.4166    1.2709    0.0000 C   0  0  0  0  0  0  0  0  0
   -5.6097    1.0994    0.0000 C   0  0  0  0  0  0  0  0  0
   -5.3547    0.3148    0.0000 C   0  0  0  0  0  0  0  0  0
   -5.9068   -0.2983    0.0000 C   0  0  0  0  0  0  0  0  0
   -6.7137   -0.1268    0.0000 C   0  0  0  0  0  0  0  0  0
   -7.2658   -0.7399    0.0000 O   0  0  0  0  0  0  0  0  0
   -6.9687    0.6578    0.0000 C   0  0  0  0  0  0  0  0  0
   -7.7756    0.8293    0.0000 C   0  0  0  0  0  0  0  0  0
   -8.0306    1.6140    0.0000 N   0  0  0  0  0  0  0  0  0
   -4.5477    0.1432    0.0000 C   0  0  0  0  0  0  0  0  0
   -4.2928   -0.6414    0.0000 N   0  0  0  0  0  0  0  0  0
   -3.4858   -0.8129    0.0000 C   0  0  0  0  0  0  0  0  0
   -3.2309   -1.5975    0.0000 C   0  0  0  0  0  0  0  0  0
   -3.7829   -2.2106    0.0000 C   0  0  0  0  0  0  0  0  0
   -4.5899   -2.0391    0.0000 C   0  0  0  0  0  0  0  0  0
   -4.8448   -1.2545    0.0000 C   0  0  0  0  0  0  0  0  0
   -3.5280   -2.9953    0.0000 C   0  0  0  0  0  0  0  0  0
   -4.0129   -3.6627    0.0000 N   0  0  0  0  0  0  0  0  0
   -3.5280   -4.3301    0.0000 O   0  0  0  0  0  0  0  0  0
   -2.7434   -4.0752    0.0000 C   0  0  0  0  0  0  0  0  0
   -2.7434   -3.2502    0.0000 C   0  0  0  0  0  0  0  0  0
   -2.0289   -2.8377    0.0000 C   0  0  0  0  0  0  0  0  0
   -1.3144   -3.2502    0.0000 C   0  0  0  0  0  0  0  0  0
   -1.3144   -4.0752    0.0000 C   0  0  0  0  0  0  0  0  0
   -0.6000   -4.4877    0.0000 F   0  0  0  0  0  0  0  0  0
   -2.0289   -4.4877    0.0000 C   0  0  0  0  0  0  0  0  0
  1  2  1  0  0  0  0
  1  3  1  0  0  0  0
  3  4  4  0  0  0  0
  3 13  4  0  0  0  0
  4  5  4  0  0  0  0
  5  6  1  0  0  0  0
  5 11  4  0  0  0  0
  6  7  1  0  0  0  0
  7  8  1  0  0  0  0
  7 14  1  0  0  0  0
  8  9  1  0  0  0  0
  9 10  2  0  0  0  0
  9 11  1  0  0  0  0
 11 12  4  0  0  0  0
 12 13  4  0  0  0  0
 14 15  1  0  0  0  0
 15 16  1  0  0  0  0
 15 20  1  0  0  0  0
 16 17  1  0  0  0  0
 17 18  1  0  0  0  0
 18 19  1  0  0  0  0
 18 21  1  0  0  0  0
 19 20  1  0  0  0  0
 21 22  4  0  0  0  0
 21 25  4  0  0  0  0
 22 23  4  0  0  0  0
 23 24  4  0  0  0  0
 24 25  4  0  0  0  0
 24 30  4  0  0  0  0
 25 26  4  0  0  0  0
 26 27  4  0  0  0  0
 27 28  4  0  0  0  0
 28 29  1  0  0  0  0
 28 30  4  0  0  0  0
M  END
>  <Name_Molregno>
572298

>  <5-HT2A>
8.34

>  <5-HT2C>
5

>  <DOPAMINE D1>
7.48

>  <DOPAMINE D2>
7.49

>  <DOPAMINE D3>
7.35

$$$$
572328
  Marvin  02231216192D 0   1.00000     0.00000     0

 29 32  0  0  1  0  0  0  0  0999 V2000
    2.3747   -2.6283    0.0000 F   0  0  0  0  0  0  0  0  0
    2.3747   -1.8033    0.0000 C   0  0  0  0  0  0  0  0  0
    1.6602   -1.3908    0.0000 C   0  0  0  0  0  0  0  0  0
    1.6602   -0.5658    0.0000 C   0  0  0  0  0  0  0  0  0
    2.3747   -0.1533    0.0000 C   0  0  0  0  0  0  0  0  0
    3.0892   -0.5658    0.0000 C   0  0  0  0  0  0  0  0  0
    3.0892   -1.3908    0.0000 C   0  0  0  0  0  0  0  0  0
    2.3747    0.6717    0.0000 C   0  0  0  0  0  0  0  0  0
    1.6602    1.0842    0.0000 O   0  0  0  0  0  0  0  0  0
    3.0892    1.0842    0.0000 C   0  0  0  0  0  0  0  0  0
    3.0892    1.9092    0.0000 C   0  0  0  0  0  0  0  0  0
    3.8036    2.3217    0.0000 C   0  0  0  0  0  0  0  0  0
    4.5181    1.9092    0.0000 N   0  0  0  0  0  0  0  0  0
    4.5181    1.0842    0.0000 C   0  0  0  0  0  0  0  0  0
    3.8036    0.6717    0.0000 C   0  0  0  0  0  0  0  0  0
    5.2326    2.3217    0.0000 C   0  0  0  0  0  0  0  0  0
    5.9470    1.9092    0.0000 C   0  0  0  0  0  0  0  0  0
    5.9470    1.0842    0.0000 C   0  0  0  0  0  0  0  0  0
    6.6615    0.6717    0.0000 C   0  0  0  0  0  0  0  0  0
    6.6615   -0.1533    0.0000 O   0  0  0  0  0  0  0  0  0
    7.3760    1.0842    0.0000 C   0  0  0  0  0  0  0  0  0
    7.3760    1.9092    0.0000 C   0  0  0  0  0  0  0  0  0
    8.0905    2.3217    0.0000 N   0  0  0  0  0  0  0  0  0
    8.8049    1.9092    0.0000 C   0  0  0  0  0  0  0  0  0
    8.8049    1.0842    0.0000 N   0  0  0  0  0  0  0  0  0
    8.0905    0.6717    0.0000 C   0  0  0  0  0  0  0  0  0
    9.5194    2.3217    0.0000 N   0  0  0  0  0  0  0  0  0
    9.5194    3.1467    0.0000 C   0  0  0  0  0  0  0  0  0
    6.6615    2.3217    0.0000 C   0  0  0  0  0  0  0  0  0
  1  2  1  0  0  0  0
  2  3  4  0  0  0  0
  2  7  4  0  0  0  0
  3  4  4  0  0  0  0
  4  5  4  0  0  0  0
  5  6  4  0  0  0  0
  5  8  1  0  0  0  0
  6  7  4  0  0  0  0
  8  9  2  0  0  0  0
  8 10  1  0  0  0  0
 10 11  1  0  0  0  0
 10 15  1  0  0  0  0
 11 12  1  0  0  0  0
 12 13  1  0  0  0  0
 13 14  1  0  0  0  0
 13 16  1  0  0  0  0
 14 15  1  0  0  0  0
 16 17  1  0  0  0  0
 17 18  1  0  0  0  0
 17 29  1  0  0  0  0
 18 19  1  0  0  0  0
 19 20  2  0  0  0  0
 19 21  1  0  0  0  0
 21 22  4  0  0  0  0
 21 26  4  0  0  0  0
 22 23  4  0  0  0  0
 22 29  1  0  0  0  0
 23 24  4  0  0  0  0
 24 25  4  0  0  0  0
 24 27  1  0  0  0  0
 25 26  4  0  0  0  0
 27 28  1  0  0  0  0
M  END
>  <Name_Molregno>
572328

>  <5-HT2A>
8.19

>  <DOPAMINE D2>
6.63

$$$$
572334
  Marvin  02231216192D 0   1.00000     0.00000     0

 30 34  0  0  1  0  0  0  0  0999 V2000
    1.8876   -2.7225    0.0000 F   0  0  0  0  0  0  0  0  0
    2.1426   -1.9379    0.0000 C   0  0  0  0  0  0  0  0  0
    1.5905   -1.3248    0.0000 C   0  0  0  0  0  0  0  0  0
    1.8455   -0.5402    0.0000 C   0  0  0  0  0  0  0  0  0
    1.4330    0.1743    0.0000 O   0  0  0  0  0  0  0  0  0
    1.9850    0.7874    0.0000 N   0  0  0  0  0  0  0  0  0
    2.7387    0.4518    0.0000 C   0  0  0  0  0  0  0  0  0
    2.6524   -0.3686    0.0000 C   0  0  0  0  0  0  0  0  0
    3.2045   -0.9817    0.0000 C   0  0  0  0  0  0  0  0  0
    2.9495   -1.7664    0.0000 C   0  0  0  0  0  0  0  0  0
    3.4531    0.8643    0.0000 C   0  0  0  0  0  0  0  0  0
    3.4531    1.6893    0.0000 C   0  0  0  0  0  0  0  0  0
    4.1676    2.1018    0.0000 C   0  0  0  0  0  0  0  0  0
    4.8821    1.6893    0.0000 N   0  0  0  0  0  0  0  0  0
    4.8821    0.8643    0.0000 C   0  0  0  0  0  0  0  0  0
    4.1676    0.4518    0.0000 C   0  0  0  0  0  0  0  0  0
    5.5966    2.1018    0.0000 C   0  0  0  0  0  0  0  0  0
    6.3110    1.6893    0.0000 C   0  0  0  0  0  0  0  0  0
    6.3110    0.8643    0.0000 C   0  0  0  0  0  0  0  0  0
    7.0255    0.4518    0.0000 C   0  0  0  0  0  0  0  0  0
    7.0255   -0.3732    0.0000 O   0  0  0  0  0  0  0  0  0
    7.7400    0.8643    0.0000 C   0  0  0  0  0  0  0  0  0
    7.7400    1.6893    0.0000 C   0  0  0  0  0  0  0  0  0
    8.4544    2.1018    0.0000 N   0  0  0  0  0  0  0  0  0
    9.1689    1.6893    0.0000 C   0  0  0  0  0  0  0  0  0
    9.1689    0.8643    0.0000 N   0  0  0  0  0  0  0  0  0
    8.4544    0.4518    0.0000 C   0  0  0  0  0  0  0  0  0
    9.8834    2.1018    0.0000 N   0  0  0  0  0  0  0  0  0
    9.8834    2.9268    0.0000 C   0  0  0  0  0  0  0  0  0
    7.0255    2.1018    0.0000 C   0  0  0  0  0  0  0  0  0
  1  2  1  0  0  0  0
  2  3  4  0  0  0  0
  2 10  4  0  0  0  0
  3  4  4  0  0  0  0
  4  5  4  0  0  0  0
  4  8  4  0  0  0  0
  5  6  4  0  0  0  0
  6  7  4  0  0  0  0
  7  8  4  0  0  0  0
  7 11  1  0  0  0  0
  8  9  4  0  0  0  0
  9 10  4  0  0  0  0
 11 12  1  0  0  0  0
 11 16  1  0  0  0  0
 12 13  1  0  0  0  0
 13 14  1  0  0  0  0
 14 15  1  0  0  0  0
 14 17  1  0  0  0  0
 15 16  1  0  0  0  0
 17 18  1  0  0  0  0
 18 19  1  0  0  0  0
 18 30  1  0  0  0  0
 19 20  1  0  0  0  0
 20 21  2  0  0  0  0
 20 22  1  0  0  0  0
 22 23  4  0  0  0  0
 22 27  4  0  0  0  0
 23 24  4  0  0  0  0
 23 30  1  0  0  0  0
 24 25  4  0  0  0  0
 25 26  4  0  0  0  0
 25 28  1  0  0  0  0
 26 27  4  0  0  0  0
 28 29  1  0  0  0  0
M  END
>  <Name_Molregno>
572334

>  <5-HT2A>
8.62

>  <5-HT2C>
5

>  <DOPAMINE D1>
7.37

>  <DOPAMINE D2>
7.31

>  <DOPAMINE D3>
6.7

$$$$
572370
  Marvin  02231216192D 0   1.00000     0.00000     0

 33 37  0  0  1  0  0  0  0  0999 V2000
    2.3825   -3.0866    0.0000 F   0  0  0  0  0  0  0  0  0
    2.3825   -2.2616    0.0000 C   0  0  0  0  0  0  0  0  0
    1.6680   -1.8491    0.0000 C   0  0  0  0  0  0  0  0  0
    1.6680   -1.0241    0.0000 C   0  0  0  0  0  0  0  0  0
    2.3825   -0.6116    0.0000 C   0  0  0  0  0  0  0  0  0
    3.0970   -1.0241    0.0000 C   0  0  0  0  0  0  0  0  0
    3.0970   -1.8491    0.0000 C   0  0  0  0  0  0  0  0  0
    2.3825    0.2134    0.0000 C   0  0  0  0  0  0  0  0  0
    1.6680    0.6259    0.0000 O   0  0  0  0  0  0  0  0  0
    3.0970    0.6259    0.0000 C   0  0  0  0  0  0  0  0  0
    3.0970    1.4509    0.0000 C   0  0  0  0  0  0  0  0  0
    3.8114    1.8634    0.0000 C   0  0  0  0  0  0  0  0  0
    4.5259    1.4509    0.0000 N   0  0  0  0  0  0  0  0  0
    4.5259    0.6259    0.0000 C   0  0  0  0  0  0  0  0  0
    3.8114    0.2134    0.0000 C   0  0  0  0  0  0  0  0  0
    5.2404    1.8634    0.0000 C   0  0  0  0  0  0  0  0  0
    5.9548    1.4509    0.0000 C   0  0  0  0  0  0  0  0  0
    5.9548    0.6259    0.0000 C   0  0  0  0  0  0  0  0  0
    6.6693    0.2134    0.0000 C   0  0  0  0  0  0  0  0  0
    6.6693   -0.6116    0.0000 O   0  0  0  0  0  0  0  0  0
    7.3838    0.6259    0.0000 C   0  0  0  0  0  0  0  0  0
    7.3838    1.4509    0.0000 C   0  0  0  0  0  0  0  0  0
    8.0983    1.8634    0.0000 N   0  0  0  0  0  0  0  0  0
    8.8127    1.4509    0.0000 C   0  0  0  0  0  0  0  0  0
    8.8127    0.6259    0.0000 N   0  0  0  0  0  0  0  0  0
    8.0983    0.2134    0.0000 C   0  0  0  0  0  0  0  0  0
    9.5272    1.8634    0.0000 C   0  0  0  0  0  0  0  0  0
    9.5272    2.6884    0.0000 C   0  0  0  0  0  0  0  0  0
   10.2417    3.1009    0.0000 C   0  0  0  0  0  0  0  0  0
   10.9561    2.6884    0.0000 C   0  0  0  0  0  0  0  0  0
   10.9561    1.8634    0.0000 C   0  0  0  0  0  0  0  0  0
   10.2417    1.4509    0.0000 C   0  0  0  0  0  0  0  0  0
    6.6693    1.8634    0.0000 C   0  0  0  0  0  0  0  0  0
  1  2  1  0  0  0  0
  2  3  4  0  0  0  0
  2  7  4  0  0  0  0
  3  4  4  0  0  0  0
  4  5  4  0  0  0  0
  5  6  4  0  0  0  0
  5  8  1  0  0  0  0
  6  7  4  0  0  0  0
  8  9  2  0  0  0  0
  8 10  1  0  0  0  0
 10 11  1  0  0  0  0
 10 15  1  0  0  0  0
 11 12  1  0  0  0  0
 12 13  1  0  0  0  0
 13 14  1  0  0  0  0
 13 16  1  0  0  0  0
 14 15  1  0  0  0  0
 16 17  1  0  0  0  0
 17 18  1  0  0  0  0
 17 33  1  0  0  0  0
 18 19  1  0  0  0  0
 19 20  2  0  0  0  0
 19 21  1  0  0  0  0
 21 22  4  0  0  0  0
 21 26  4  0  0  0  0
 22 23  4  0  0  0  0
 22 33  1  0  0  0  0
 23 24  4  0  0  0  0
 24 25  4  0  0  0  0
 24 27  1  0  0  0  0
 25 26  4  0  0  0  0
 27 28  4  0  0  0  0
 27 32  4  0  0  0  0
 28 29  4  0  0  0  0
 29 30  4  0  0  0  0
 30 31  4  0  0  0  0
 31 32  4  0  0  0  0
M  END
>  <Name_Molregno>
572370

>  <5-HT2A>
6.2

$$$$
590504
  Marvin  02231216192D 0   1.00000     0.00000     0

 23 26  0  0  0  0  0  0  0  0999 V2000
    0.2821   -0.2802    0.0000 N   0  0  0  0  0  0  0  0  0
    0.9496   -0.7652    0.0000 C   0  0  0  0  0  0  0  0  0
    1.7565   -0.5936    0.0000 C   0  0  0  0  0  0  0  0  0
    2.3086   -1.2067    0.0000 C   0  0  0  0  0  0  0  0  0
    2.0536   -1.9913    0.0000 N   0  0  0  0  0  0  0  0  0
    1.2467   -2.1629    0.0000 C   0  0  0  0  0  0  0  0  0
    0.6946   -1.5498    0.0000 C   0  0  0  0  0  0  0  0  0
   -0.1304   -1.5498    0.0000 C   0  0  0  0  0  0  0  0  0
   -0.6824   -2.1629    0.0000 C   0  0  0  0  0  0  0  0  0
   -1.4894   -1.9913    0.0000 C   0  0  0  0  0  0  0  0  0
   -1.7443   -1.2067    0.0000 C   0  0  0  0  0  0  0  0  0
   -1.1923   -0.5936    0.0000 C   0  0  0  0  0  0  0  0  0
   -0.3853   -0.7652    0.0000 C   0  0  0  0  0  0  0  0  0
   -2.0414   -2.6044    0.0000 C   0  0  0  0  0  0  0  0  0
    2.6057   -2.6044    0.0000 C   0  0  0  0  0  0  0  0  0
    0.2821    0.5448    0.0000 C   0  0  0  0  0  0  0  0  0
   -0.4323    0.9573    0.0000 C   0  0  0  0  0  0  0  0  0
   -0.4323    1.7823    0.0000 C   0  0  0  0  0  0  0  0  0
   -1.1468    2.1948    0.0000 C   0  0  0  0  0  0  0  0  0
   -1.1468    3.0198    0.0000 C   0  0  0  0  0  0  0  0  0
   -0.4323    3.4323    0.0000 C   0  0  0  0  0  0  0  0  0
    0.2821    3.0198    0.0000 C   0  0  0  0  0  0  0  0  0
    0.2821    2.1948    0.0000 C   0  0  0  0  0  0  0  0  0
  1  2  4  0  0  0  0
  1 13  4  0  0  0  0
  1 16  1  0  0  0  0
  2  3  1  0  0  0  0
  2  7  4  0  0  0  0
  3  4  1  0  0  0  0
  4  5  1  0  0  0  0
  5  6  1  0  0  0  0
  5 15  1  0  0  0  0
  6  7  1  0  0  0  0
  7  8  4  0  0  0  0
  8  9  4  0  0  0  0
  8 13  4  0  0  0  0
  9 10  4  0  0  0  0
 10 11  4  0  0  0  0
 10 14  1  0  0  0  0
 11 12  4  0  0  0  0
 12 13  4  0  0  0  0
 16 17  2  0  0  0  0
 17 18  1  0  0  0  0
 18 19  4  0  0  0  0
 18 23  4  0  0  0  0
 19 20  4  0  0  0  0
 20 21  4  0  0  0  0
 21 22  4  0  0  0  0
 22 23  4  0  0  0  0
M  END
>  <Name_Molregno>
590504

>  <5-HT2A>
9

>  <5-HT2C>
9.32

>  <5-HT6>
9.21

>  <5-HT7>
9.68

>  <Alpha-2A>
9.62

>  <DOPAMINE D2>
7.46

$$$$
590667
  Marvin  02231216192D 0   1.00000     0.00000     0

 23 26  0  0  0  0  0  0  0  0999 V2000
    0.2821   -0.2802    0.0000 N   0  0  0  0  0  0  0  0  0
    0.9496   -0.7652    0.0000 C   0  0  0  0  0  0  0  0  0
    1.7565   -0.5936    0.0000 C   0  0  0  0  0  0  0  0  0
    2.3086   -1.2067    0.0000 C   0  0  0  0  0  0  0  0  0
    2.0536   -1.9913    0.0000 N   0  0  0  0  0  0  0  0  0
    1.2467   -2.1629    0.0000 C   0  0  0  0  0  0  0  0  0
    0.6946   -1.5498    0.0000 C   0  0  0  0  0  0  0  0  0
   -0.1304   -1.5498    0.0000 C   0  0  0  0  0  0  0  0  0
   -0.6824   -2.1629    0.0000 C   0  0  0  0  0  0  0  0  0
   -1.4894   -1.9913    0.0000 C   0  0  0  0  0  0  0  0  0
   -1.7443   -1.2067    0.0000 C   0  0  0  0  0  0  0  0  0
   -1.1923   -0.5936    0.0000 C   0  0  0  0  0  0  0  0  0
   -0.3853   -0.7652    0.0000 C   0  0  0  0  0  0  0  0  0
   -2.0414   -2.6044    0.0000 C   0  0  0  0  0  0  0  0  0
    2.6057   -2.6044    0.0000 C   0  0  0  0  0  0  0  0  0
    0.2821    0.5448    0.0000 C   0  0  0  0  0  0  0  0  0
   -0.4323    0.9573    0.0000 C   0  0  0  0  0  0  0  0  0
   -0.4323    1.7823    0.0000 C   0  0  0  0  0  0  0  0  0
   -1.1468    2.1948    0.0000 C   0  0  0  0  0  0  0  0  0
   -1.1468    3.0198    0.0000 C   0  0  0  0  0  0  0  0  0
   -0.4323    3.4323    0.0000 C   0  0  0  0  0  0  0  0  0
    0.2821    3.0198    0.0000 C   0  0  0  0  0  0  0  0  0
    0.2821    2.1948    0.0000 C   0  0  0  0  0  0  0  0  0
  1  2  4  0  0  0  0
  1 13  4  0  0  0  0
  1 16  1  0  0  0  0
  2  3  1  0  0  0  0
  2  7  4  0  0  0  0
  3  4  1  0  0  0  0
  4  5  1  0  0  0  0
  5  6  1  0  0  0  0
  5 15  1  0  0  0  0
  6  7  1  0  0  0  0
  7  8  4  0  0  0  0
  8  9  4  0  0  0  0
  8 13  4  0  0  0  0
  9 10  4  0  0  0  0
 10 11  4  0  0  0  0
 10 14  1  0  0  0  0
 11 12  4  0  0  0  0
 12 13  4  0  0  0  0
 16 17  1  0  0  0  0
 17 18  1  0  0  0  0
 18 19  4  0  0  0  0
 18 23  4  0  0  0  0
 19 20  4  0  0  0  0
 20 21  4  0  0  0  0
 21 22  4  0  0  0  0
 22 23  4  0  0  0  0
M  END
>  <Name_Molregno>
590667

>  <5-HT2A>
8.7

>  <5-HT2C>
8.92

>  <5-HT6>
8.7

>  <5-HT7>
9.6

>  <Alpha-2A>
8.7

>  <DOPAMINE D2>
7.07

$$$$
590668
  Marvin  02231216192D 0   1.00000     0.00000     0

 24 27  0  0  0  0  0  0  0  0999 V2000
    0.4874   -0.4845    0.0000 N   0  0  0  0  0  0  0  0  0
    1.1548   -0.9694    0.0000 C   0  0  0  0  0  0  0  0  0
    1.9618   -0.7979    0.0000 C   0  0  0  0  0  0  0  0  0
    2.5138   -1.4110    0.0000 C   0  0  0  0  0  0  0  0  0
    2.2589   -2.1956    0.0000 N   0  0  0  0  0  0  0  0  0
    1.4519   -2.3672    0.0000 C   0  0  0  0  0  0  0  0  0
    0.8999   -1.7541    0.0000 C   0  0  0  0  0  0  0  0  0
    0.0749   -1.7541    0.0000 C   0  0  0  0  0  0  0  0  0
   -0.4772   -2.3672    0.0000 C   0  0  0  0  0  0  0  0  0
   -1.2841   -2.1956    0.0000 C   0  0  0  0  0  0  0  0  0
   -1.5391   -1.4110    0.0000 C   0  0  0  0  0  0  0  0  0
   -0.9870   -0.7979    0.0000 C   0  0  0  0  0  0  0  0  0
   -0.1801   -0.9694    0.0000 C   0  0  0  0  0  0  0  0  0
   -1.8362   -2.8087    0.0000 C   0  0  0  0  0  0  0  0  0
    2.8109   -2.8087    0.0000 C   0  0  0  0  0  0  0  0  0
    0.4874    0.3405    0.0000 C   0  0  0  0  0  0  0  0  0
   -0.2271    0.7530    0.0000 C   0  0  0  0  0  0  0  0  0
   -0.2271    1.5780    0.0000 C   0  0  0  0  0  0  0  0  0
   -0.9416    1.9905    0.0000 C   0  0  0  0  0  0  0  0  0
   -0.9416    2.8155    0.0000 C   0  0  0  0  0  0  0  0  0
   -0.2271    3.2280    0.0000 C   0  0  0  0  0  0  0  0  0
    0.4874    2.8155    0.0000 C   0  0  0  0  0  0  0  0  0
    0.4874    1.9905    0.0000 C   0  0  0  0  0  0  0  0  0
   -0.2271    4.0530    0.0000 C   0  0  0  0  0  0  0  0  0
  1  2  4  0  0  0  0
  1 13  4  0  0  0  0
  1 16  1  0  0  0  0
  2  3  1  0  0  0  0
  2  7  4  0  0  0  0
  3  4  1  0  0  0  0
  4  5  1  0  0  0  0
  5  6  1  0  0  0  0
  5 15  1  0  0  0  0
  6  7  1  0  0  0  0
  7  8  4  0  0  0  0
  8  9  4  0  0  0  0
  8 13  4  0  0  0  0
  9 10  4  0  0  0  0
 10 11  4  0  0  0  0
 10 14  1  0  0  0  0
 11 12  4  0  0  0  0
 12 13  4  0  0  0  0
 16 17  1  0  0  0  0
 17 18  1  0  0  0  0
 18 19  4  0  0  0  0
 18 23  4  0  0  0  0
 19 20  4  0  0  0  0
 20 21  4  0  0  0  0
 21 22  4  0  0  0  0
 21 24  1  0  0  0  0
 22 23  4  0  0  0  0
M  END
>  <Name_Molregno>
590668

>  <5-HT2A>
8.96

>  <5-HT2C>
8.8

>  <5-HT6>
8.62

>  <5-HT7>
9.41

>  <Alpha-2A>
9.09

$$$$
590783
  Marvin  02231216192D 0   1.00000     0.00000     0

 24 27  0  0  0  0  0  0  0  0999 V2000
   -1.9550    2.5452    0.0000 N   0  0  0  0  0  0  0  0  0
   -1.9550    1.7202    0.0000 C   0  0  0  0  0  0  0  0  0
   -2.6694    1.3077    0.0000 C   0  0  0  0  0  0  0  0  0
   -3.3839    1.7202    0.0000 C   0  0  0  0  0  0  0  0  0
   -3.3839    2.5452    0.0000 C   0  0  0  0  0  0  0  0  0
   -2.6694    2.9577    0.0000 C   0  0  0  0  0  0  0  0  0
   -2.6694    3.7827    0.0000 C   0  0  0  0  0  0  0  0  0
   -2.6694    0.4827    0.0000 C   0  0  0  0  0  0  0  0  0
   -3.3839    0.0702    0.0000 C   0  0  0  0  0  0  0  0  0
   -3.3839   -0.7548    0.0000 N   0  0  0  0  0  0  0  0  0
   -2.7165   -1.2397    0.0000 C   0  0  0  0  0  0  0  0  0
   -1.9095   -1.0682    0.0000 C   0  0  0  0  0  0  0  0  0
   -1.3575   -1.6813    0.0000 C   0  0  0  0  0  0  0  0  0
   -1.6124   -2.4659    0.0000 N   0  0  0  0  0  0  0  0  0
   -2.4194   -2.6374    0.0000 C   0  0  0  0  0  0  0  0  0
   -2.9714   -2.0243    0.0000 C   0  0  0  0  0  0  0  0  0
   -3.7964   -2.0243    0.0000 C   0  0  0  0  0  0  0  0  0
   -4.3484   -2.6374    0.0000 C   0  0  0  0  0  0  0  0  0
   -5.1554   -2.4659    0.0000 C   0  0  0  0  0  0  0  0  0
   -5.4103   -1.6813    0.0000 C   0  0  0  0  0  0  0  0  0
   -4.8583   -1.0682    0.0000 C   0  0  0  0  0  0  0  0  0
   -4.0513   -1.2397    0.0000 C   0  0  0  0  0  0  0  0  0
   -5.7074   -3.0790    0.0000 C   0  0  0  0  0  0  0  0  0
   -1.0604   -3.0790    0.0000 C   0  0  0  0  0  0  0  0  0
  1  2  4  0  0  0  0
  1  6  4  0  0  0  0
  2  3  4  0  0  0  0
  3  4  4  0  0  0  0
  3  8  1  0  0  0  0
  4  5  4  0  0  0  0
  5  6  4  0  0  0  0
  6  7  1  0  0  0  0
  8  9  1  0  0  0  0
  9 10  1  0  0  0  0
 10 11  4  0  0  0  0
 10 22  4  0  0  0  0
 11 12  1  0  0  0  0
 11 16  4  0  0  0  0
 12 13  1  0  0  0  0
 13 14  1  0  0  0  0
 14 15  1  0  0  0  0
 14 24  1  0  0  0  0
 15 16  1  0  0  0  0
 16 17  4  0  0  0  0
 17 18  4  0  0  0  0
 17 22  4  0  0  0  0
 18 19  4  0  0  0  0
 19 20  4  0  0  0  0
 19 23  1  0  0  0  0
 20 21  4  0  0  0  0
 21 22  4  0  0  0  0
M  END
>  <Name_Molregno>
590783

>  <5-HT2A>
7.21

>  <5-HT2C>
7.12

>  <5-HT6>
7.51

>  <5-HT7>
8.1

>  <Alpha-2A>
6.96

>  <DOPAMINE D2>
6.2

$$$$
591110
  Marvin  02231216192D 0   1.00000     0.00000     0

 27 31  0  0  1  0  0  0  0  0999 V2000
    0.4188    1.2437    0.0000 O   0  0  0  0  0  0  0  0  0
   -0.3658    0.9887    0.0000 C   0  0  0  0  0  0  0  0  0
   -0.3658    0.1637    0.0000 C   0  0  0  0  0  0  0  0  0
    0.4188   -0.0912    0.0000 O   0  0  0  0  0  0  0  0  0
    0.9037    0.5762    0.0000 C   0  0  0  0  0  0  0  0  0
   -1.0803   -0.2488    0.0000 C   0  0  0  0  0  0  0  0  0
   -1.7947    0.1637    0.0000 C   0  0  0  0  0  0  0  0  0
   -2.5092   -0.2488    0.0000 C   0  0  0  0  0  0  0  0  0
   -3.2237    0.1637    0.0000 C   0  0  0  0  0  0  0  0  0
   -3.9382   -0.2488    0.0000 N   0  0  0  0  0  0  0  0  0
   -4.6526    0.1637    0.0000 C   0  0  0  0  0  0  0  0  0
   -4.6526    0.9887    0.0000 C   0  0  0  0  0  0  0  0  0
   -3.9382    1.4012    0.0000 C   0  0  0  0  0  0  0  0  0
   -3.9382    2.2262    0.0000 C   0  0  0  0  0  0  0  0  0
   -3.2237    2.6387    0.0000 C   0  0  0  0  0  0  0  0  0
   -3.2237    3.4637    0.0000 C   0  0  0  0  0  0  0  0  0
   -3.9382    3.8762    0.0000 O   0  0  0  0  0  0  0  0  0
   -2.5092    3.8762    0.0000 C   0  0  0  0  0  0  0  0  0
   -2.5092    2.2262    0.0000 C   0  0  0  0  0  0  0  0  0
   -2.5092    1.4012    0.0000 C   0  0  0  0  0  0  0  0  0
   -3.2237    0.9887    0.0000 C   0  0  0  0  0  0  0  0  0
   -1.7947    0.9887    0.0000 C   0  0  0  0  0  0  0  0  0
   -1.0803    1.4012    0.0000 C   0  0  0  0  0  0  0  0  0
   -1.7947    2.6387    0.0000 C   0  0  0  0  0  0  0  0  0
   -1.0803    2.2262    0.0000 O   0  0  0  0  0  0  0  0  0
   -1.7947    3.4637    0.0000 C   0  0  0  0  0  0  0  0  0
   -3.9382   -1.0738    0.0000 C   0  0  0  0  0  0  0  0  0
  1  2  1  0  0  0  0
  1  5  1  0  0  0  0
  2  3  4  0  0  0  0
  2 23  4  0  0  0  0
  3  4  1  0  0  0  0
  3  6  4  0  0  0  0
  4  5  1  0  0  0  0
  6  7  4  0  0  0  0
  7  8  1  0  0  0  0
  7 22  4  0  0  0  0
  8  9  1  0  0  0  0
  9 10  1  0  0  0  0
  9 21  1  0  0  0  0
 10 11  1  0  0  0  0
 10 27  1  0  0  0  0
 11 12  1  0  0  0  0
 12 13  1  0  0  0  0
 13 14  4  0  0  0  0
 13 21  4  0  0  0  0
 14 15  4  0  0  0  0
 15 16  1  0  0  0  0
 15 19  4  0  0  0  0
 16 17  2  0  0  0  0
 16 18  1  0  0  0  0
 19 20  4  0  0  0  0
 19 24  1  0  0  0  0
 20 21  4  0  0  0  0
 20 22  1  0  0  0  0
 22 23  4  0  0  0  0
 24 25  2  0  0  0  0
 24 26  1  0  0  0  0
M  END
>  <Name_Molregno>
591110

>  <5-HT1B>
7

>  <5-HT1D>
7.31

>  <5-HT1E>
5

>  <5-HT2A>
6.08

>  <5-HT2C>
5.97

>  <5-HT3>
5

>  <5-HT5>
5.65

>  <5-HT6>
6.59

>  <5-HT7>
7.17

>  <Alpha-1A>
8.7

>  <Alpha-1B>
5.92

>  <Alpha-2A>
5.89

>  <Alpha-2B>
6.6

>  <Alpha-2C>
6.74

>  <Beta-1>
5.07

>  <Beta-2>
5

>  <DOPAMINE D1>
6.05

>  <DOPAMINE D2>
6.07

>  <DOPAMINE D3>
6.51

>  <DOPAMINE D4>
6.58

>  <DOPAMINE D5>
5.62

>  <Dopamine transporter>
5

>  <HISTAMINE H1>
5

>  <HISTAMINE H2>
6.17

>  <HISTAMINE H3>
5

>  <HISTAMINE H4>
5

>  <Muscarinic acetylcholine receptor M1>
5

>  <Muscarinic acetylcholine receptor M2>
5

>  <Muscarinic acetylcholine receptor M3>
5

>  <Muscarinic acetylcholine receptor M4>
5

>  <Norepinephrine transporter>
5

>  <Serotonin transporter>
6.61

$$$$
591828
  Marvin  02231216192D 0   1.00000     0.00000     0

 19 21  0  0  0  0  0  0  0  0999 V2000
    2.1041   -3.7713    0.0000 N   0  0  0  0  0  0  0  0  0
    2.1041   -2.9463    0.0000 C   0  0  0  0  0  0  0  0  0
    1.3897   -2.5338    0.0000 C   0  0  0  0  0  0  0  0  0
    1.3897   -1.7088    0.0000 C   0  0  0  0  0  0  0  0  0
    2.1041   -1.2963    0.0000 C   0  0  0  0  0  0  0  0  0
    2.1041   -0.4713    0.0000 C   0  0  0  0  0  0  0  0  0
    1.3897   -0.0588    0.0000 C   0  0  0  0  0  0  0  0  0
    0.6752   -0.4713    0.0000 C   0  0  0  0  0  0  0  0  0
    0.6752   -1.2963    0.0000 C   0  0  0  0  0  0  0  0  0
   -0.0393   -1.7088    0.0000 C   0  0  0  0  0  0  0  0  0
   -0.7538   -1.2963    0.0000 C   0  0  0  0  0  0  0  0  0
   -0.7538   -0.4713    0.0000 C   0  0  0  0  0  0  0  0  0
   -0.0393   -0.0588    0.0000 C   0  0  0  0  0  0  0  0  0
    2.8186   -0.0588    0.0000 C   0  0  0  0  0  0  0  0  0
    3.5331   -0.4713    0.0000 C   0  0  0  0  0  0  0  0  0
    3.5331   -1.2963    0.0000 C   0  0  0  0  0  0  0  0  0
    2.8186   -1.7088    0.0000 C   0  0  0  0  0  0  0  0  0
    2.8186   -4.1838    0.0000 C   0  0  0  0  0  0  0  0  0
    1.3897   -4.1838    0.0000 C   0  0  0  0  0  0  0  0  0
  1  2  1  0  0  0  0
  1 18  1  0  0  0  0
  1 19  1  0  0  0  0
  2  3  1  0  0  0  0
  3  4  1  0  0  0  0
  4  5  1  0  0  0  0
  4  9  1  0  0  0  0
  5  6  4  0  0  0  0
  5 17  4  0  0  0  0
  6  7  1  0  0  0  0
  6 14  4  0  0  0  0
  7  8  1  0  0  0  0
  8  9  4  0  0  0  0
  8 13  4  0  0  0  0
  9 10  4  0  0  0  0
 10 11  4  0  0  0  0
 11 12  4  0  0  0  0
 12 13  4  0  0  0  0
 14 15  4  0  0  0  0
 15 16  4  0  0  0  0
 16 17  4  0  0  0  0
M  END
>  <Name_Molregno>
591828

>  <5-HT2A>
7.08

>  <HISTAMINE H1>
8.22

$$$$
591856
  Marvin  02231216192D 0   1.00000     0.00000     0

 16 17  0  0  0  0  0  0  0  0999 V2000
   -1.1753   -0.6068    0.0000 N   0  0  0  0  0  0  0  0  0
   -0.4608   -1.0193    0.0000 C   0  0  0  0  0  0  0  0  0
   -0.4608   -1.8443    0.0000 C   0  0  0  0  0  0  0  0  0
    0.2537   -2.2568    0.0000 C   0  0  0  0  0  0  0  0  0
    0.2537   -3.0818    0.0000 C   0  0  0  0  0  0  0  0  0
    0.9682   -3.4943    0.0000 C   0  0  0  0  0  0  0  0  0
    0.9682   -4.3193    0.0000 C   0  0  0  0  0  0  0  0  0
    0.2537   -4.7318    0.0000 C   0  0  0  0  0  0  0  0  0
   -0.4608   -4.3193    0.0000 C   0  0  0  0  0  0  0  0  0
   -0.4608   -3.4943    0.0000 C   0  0  0  0  0  0  0  0  0
    0.9682   -1.8443    0.0000 C   0  0  0  0  0  0  0  0  0
    0.9682   -1.0193    0.0000 C   0  0  0  0  0  0  0  0  0
    1.6826   -0.6068    0.0000 C   0  0  0  0  0  0  0  0  0
    2.3971   -1.0193    0.0000 C   0  0  0  0  0  0  0  0  0
    2.3971   -1.8443    0.0000 C   0  0  0  0  0  0  0  0  0
    1.6826   -2.2568    0.0000 C   0  0  0  0  0  0  0  0  0
  1  2  1  0  0  0  0
  2  3  1  0  0  0  0
  3  4  1  0  0  0  0
  4  5  1  0  0  0  0
  4 11  1  0  0  0  0
  5  6  4  0  0  0  0
  5 10  4  0  0  0  0
  6  7  4  0  0  0  0
  7  8  4  0  0  0  0
  8  9  4  0  0  0  0
  9 10  4  0  0  0  0
 11 12  4  0  0  0  0
 11 16  4  0  0  0  0
 12 13  4  0  0  0  0
 13 14  4  0  0  0  0
 14 15  4  0  0  0  0
 15 16  4  0  0  0  0
M  END
>  <Name_Molregno>
591856

>  <5-HT2A>
5

>  <HISTAMINE H1>
5.56

$$$$
591867
  Marvin  02231216192D 0   1.00000     0.00000     0

 17 18  0  0  0  0  0  0  0  0999 V2000
   -0.6729   -2.2976    0.0000 N   0  0  0  0  0  0  0  0  0
    0.0416   -1.8851    0.0000 C   0  0  0  0  0  0  0  0  0
    0.7560   -2.2976    0.0000 C   0  0  0  0  0  0  0  0  0
    1.4705   -1.8851    0.0000 C   0  0  0  0  0  0  0  0  0
    2.1850   -2.2976    0.0000 C   0  0  0  0  0  0  0  0  0
    2.8994   -1.8851    0.0000 C   0  0  0  0  0  0  0  0  0
    3.6139   -2.2976    0.0000 C   0  0  0  0  0  0  0  0  0
    3.6139   -3.1226    0.0000 C   0  0  0  0  0  0  0  0  0
    2.8994   -3.5351    0.0000 C   0  0  0  0  0  0  0  0  0
    2.1850   -3.1226    0.0000 C   0  0  0  0  0  0  0  0  0
    1.4705   -1.0601    0.0000 C   0  0  0  0  0  0  0  0  0
    0.7560   -0.6476    0.0000 C   0  0  0  0  0  0  0  0  0
    0.7560    0.1774    0.0000 C   0  0  0  0  0  0  0  0  0
    1.4705    0.5899    0.0000 C   0  0  0  0  0  0  0  0  0
    2.1850    0.1774    0.0000 C   0  0  0  0  0  0  0  0  0
    2.1850   -0.6476    0.0000 C   0  0  0  0  0  0  0  0  0
   -1.3874   -1.8851    0.0000 C   0  0  0  0  0  0  0  0  0
  1  2  1  0  0  0  0
  1 17  1  0  0  0  0
  2  3  1  0  0  0  0
  3  4  1  0  0  0  0
  4  5  1  0  0  0  0
  4 11  1  0  0  0  0
  5  6  4  0  0  0  0
  5 10  4  0  0  0  0
  6  7  4  0  0  0  0
  7  8  4  0  0  0  0
  8  9  4  0  0  0  0
  9 10  4  0  0  0  0
 11 12  4  0  0  0  0
 11 16  4  0  0  0  0
 12 13  4  0  0  0  0
 13 14  4  0  0  0  0
 14 15  4  0  0  0  0
 15 16  4  0  0  0  0
M  END
>  <Name_Molregno>
591867

>  <5-HT2A>
5.82

>  <HISTAMINE H1>
7.19

$$$$
591869
  Marvin  02231216192D 0   1.00000     0.00000     0

 18 19  0  0  0  0  0  0  0  0999 V2000
   -0.5985   -2.0710    0.0000 N   0  0  0  0  0  0  0  0  0
    0.1160   -1.6585    0.0000 C   0  0  0  0  0  0  0  0  0
    0.8305   -2.0710    0.0000 C   0  0  0  0  0  0  0  0  0
    1.5450   -1.6585    0.0000 C   0  0  0  0  0  0  0  0  0
    2.2594   -2.0710    0.0000 C   0  0  0  0  0  0  0  0  0
    2.9739   -1.6585    0.0000 C   0  0  0  0  0  0  0  0  0
    3.6884   -2.0710    0.0000 C   0  0  0  0  0  0  0  0  0
    3.6884   -2.8960    0.0000 C   0  0  0  0  0  0  0  0  0
    2.9739   -3.3085    0.0000 C   0  0  0  0  0  0  0  0  0
    2.2594   -2.8960    0.0000 C   0  0  0  0  0  0  0  0  0
    1.5450   -0.8335    0.0000 C   0  0  0  0  0  0  0  0  0
    0.8305   -0.4210    0.0000 C   0  0  0  0  0  0  0  0  0
    0.8305    0.4040    0.0000 C   0  0  0  0  0  0  0  0  0
    1.5450    0.8165    0.0000 C   0  0  0  0  0  0  0  0  0
    2.2594    0.4040    0.0000 C   0  0  0  0  0  0  0  0  0
    2.2594   -0.4210    0.0000 C   0  0  0  0  0  0  0  0  0
   -0.5985   -2.8960    0.0000 C   0  0  0  0  0  0  0  0  0
   -1.3129   -1.6585    0.0000 C   0  0  0  0  0  0  0  0  0
  1  2  1  0  0  0  0
  1 17  1  0  0  0  0
  1 18  1  0  0  0  0
  2  3  1  0  0  0  0
  3  4  1  0  0  0  0
  4  5  1  0  0  0  0
  4 11  1  0  0  0  0
  5  6  4  0  0  0  0
  5 10  4  0  0  0  0
  6  7  4  0  0  0  0
  7  8  4  0  0  0  0
  8  9  4  0  0  0  0
  9 10  4  0  0  0  0
 11 12  4  0  0  0  0
 11 16  4  0  0  0  0
 12 13  4  0  0  0  0
 13 14  4  0  0  0  0
 14 15  4  0  0  0  0
 15 16  4  0  0  0  0
M  END
>  <Name_Molregno>
591869

>  <5-HT2A>
5.79

>  <HISTAMINE H1>
7.12

$$$$
591870
  Marvin  02231216192D 0   1.00000     0.00000     0

 17 18  0  0  0  0  0  0  0  0999 V2000
   -0.5839   -1.8877    0.0000 N   0  0  0  0  0  0  0  0  0
    0.1306   -2.3002    0.0000 C   0  0  0  0  0  0  0  0  0
    0.8451   -1.8877    0.0000 C   0  0  0  0  0  0  0  0  0
    1.5596   -2.3002    0.0000 C   0  0  0  0  0  0  0  0  0
    2.2740   -1.8877    0.0000 C   0  0  0  0  0  0  0  0  0
    2.9885   -2.3002    0.0000 C   0  0  0  0  0  0  0  0  0
    3.7030   -1.8877    0.0000 C   0  0  0  0  0  0  0  0  0
    4.4174   -2.3002    0.0000 C   0  0  0  0  0  0  0  0  0
    4.4174   -3.1252    0.0000 C   0  0  0  0  0  0  0  0  0
    3.7030   -3.5377    0.0000 C   0  0  0  0  0  0  0  0  0
    2.9885   -3.1252    0.0000 C   0  0  0  0  0  0  0  0  0
    2.2740   -1.0627    0.0000 C   0  0  0  0  0  0  0  0  0
    1.5596   -0.6502    0.0000 C   0  0  0  0  0  0  0  0  0
    1.5596    0.1748    0.0000 C   0  0  0  0  0  0  0  0  0
    2.2740    0.5873    0.0000 C   0  0  0  0  0  0  0  0  0
    2.9885    0.1748    0.0000 C   0  0  0  0  0  0  0  0  0
    2.9885   -0.6502    0.0000 C   0  0  0  0  0  0  0  0  0
  1  2  1  0  0  0  0
  2  3  1  0  0  0  0
  3  4  1  0  0  0  0
  4  5  1  0  0  0  0
  5  6  1  0  0  0  0
  5 12  1  0  0  0  0
  6  7  4  0  0  0  0
  6 11  4  0  0  0  0
  7  8  4  0  0  0  0
  8  9  4  0  0  0  0
  9 10  4  0  0  0  0
 10 11  4  0  0  0  0
 12 13  4  0  0  0  0
 12 17  4  0  0  0  0
 13 14  4  0  0  0  0
 14 15  4  0  0  0  0
 15 16  4  0  0  0  0
 16 17  4  0  0  0  0
M  END
>  <Name_Molregno>
591870

>  <5-HT2A>
5.59

>  <HISTAMINE H1>
5.78

$$$$
591871
  Marvin  02231216192D 0   1.00000     0.00000     0

 18 19  0  0  0  0  0  0  0  0999 V2000
   -0.5262   -1.7099    0.0000 N   0  0  0  0  0  0  0  0  0
    0.1883   -2.1224    0.0000 C   0  0  0  0  0  0  0  0  0
    0.9027   -1.7099    0.0000 C   0  0  0  0  0  0  0  0  0
    1.6172   -2.1224    0.0000 C   0  0  0  0  0  0  0  0  0
    2.3317   -1.7099    0.0000 C   0  0  0  0  0  0  0  0  0
    3.0461   -2.1224    0.0000 C   0  0  0  0  0  0  0  0  0
    3.7606   -1.7099    0.0000 C   0  0  0  0  0  0  0  0  0
    4.4751   -2.1224    0.0000 C   0  0  0  0  0  0  0  0  0
    4.4751   -2.9474    0.0000 C   0  0  0  0  0  0  0  0  0
    3.7606   -3.3599    0.0000 C   0  0  0  0  0  0  0  0  0
    3.0461   -2.9474    0.0000 C   0  0  0  0  0  0  0  0  0
    2.3317   -0.8849    0.0000 C   0  0  0  0  0  0  0  0  0
    1.6172   -0.4724    0.0000 C   0  0  0  0  0  0  0  0  0
    1.6172    0.3526    0.0000 C   0  0  0  0  0  0  0  0  0
    2.3317    0.7651    0.0000 C   0  0  0  0  0  0  0  0  0
    3.0461    0.3526    0.0000 C   0  0  0  0  0  0  0  0  0
    3.0461   -0.4724    0.0000 C   0  0  0  0  0  0  0  0  0
   -1.2407   -2.1224    0.0000 C   0  0  0  0  0  0  0  0  0
  1  2  1  0  0  0  0
  1 18  1  0  0  0  0
  2  3  1  0  0  0  0
  3  4  1  0  0  0  0
  4  5  1  0  0  0  0
  5  6  1  0  0  0  0
  5 12  1  0  0  0  0
  6  7  4  0  0  0  0
  6 11  4  0  0  0  0
  7  8  4  0  0  0  0
  8  9  4  0  0  0  0
  9 10  4  0  0  0  0
 10 11  4  0  0  0  0
 12 13  4  0  0  0  0
 12 17  4  0  0  0  0
 13 14  4  0  0  0  0
 14 15  4  0  0  0  0
 15 16  4  0  0  0  0
 16 17  4  0  0  0  0
M  END
>  <Name_Molregno>
591871

>  <5-HT2A>
6.12

>  <HISTAMINE H1>
6.41

$$$$
591883
  Marvin  02231216192D 0   1.00000     0.00000     0

 19 20  0  0  0  0  0  0  0  0999 V2000
   -0.5317   -1.7172    0.0000 N   0  0  0  0  0  0  0  0  0
    0.1828   -2.1297    0.0000 C   0  0  0  0  0  0  0  0  0
    0.8972   -1.7172    0.0000 C   0  0  0  0  0  0  0  0  0
    1.6117   -2.1297    0.0000 C   0  0  0  0  0  0  0  0  0
    2.3262   -1.7172    0.0000 C   0  0  0  0  0  0  0  0  0
    3.0406   -2.1297    0.0000 C   0  0  0  0  0  0  0  0  0
    3.7551   -1.7172    0.0000 C   0  0  0  0  0  0  0  0  0
    4.4696   -2.1297    0.0000 C   0  0  0  0  0  0  0  0  0
    4.4696   -2.9547    0.0000 C   0  0  0  0  0  0  0  0  0
    3.7551   -3.3672    0.0000 C   0  0  0  0  0  0  0  0  0
    3.0406   -2.9547    0.0000 C   0  0  0  0  0  0  0  0  0
    2.3262   -0.8922    0.0000 C   0  0  0  0  0  0  0  0  0
    1.6117   -0.4797    0.0000 C   0  0  0  0  0  0  0  0  0
    1.6117    0.3453    0.0000 C   0  0  0  0  0  0  0  0  0
    2.3262    0.7578    0.0000 C   0  0  0  0  0  0  0  0  0
    3.0406    0.3453    0.0000 C   0  0  0  0  0  0  0  0  0
    3.0406   -0.4797    0.0000 C   0  0  0  0  0  0  0  0  0
   -1.2462   -2.1297    0.0000 C   0  0  0  0  0  0  0  0  0
   -0.5317   -0.8922    0.0000 C   0  0  0  0  0  0  0  0  0
  1  2  1  0  0  0  0
  1 18  1  0  0  0  0
  1 19  1  0  0  0  0
  2  3  1  0  0  0  0
  3  4  1  0  0  0  0
  4  5  1  0  0  0  0
  5  6  1  0  0  0  0
  5 12  1  0  0  0  0
  6  7  4  0  0  0  0
  6 11  4  0  0  0  0
  7  8  4  0  0  0  0
  8  9  4  0  0  0  0
  9 10  4  0  0  0  0
 10 11  4  0  0  0  0
 12 13  4  0  0  0  0
 12 17  4  0  0  0  0
 13 14  4  0  0  0  0
 14 15  4  0  0  0  0
 15 16  4  0  0  0  0
 16 17  4  0  0  0  0
M  END
>  <Name_Molregno>
591883

>  <5-HT2A>
5.94

>  <HISTAMINE H1>
7.15

$$$$
591899
  Marvin  02231216192D 0   1.00000     0.00000     0

 18 20  0  0  0  0  0  0  0  0999 V2000
   -1.0442   -4.0454    0.0000 N   0  0  0  0  0  0  0  0  0
   -1.0442   -3.2204    0.0000 C   0  0  0  0  0  0  0  0  0
   -1.7587   -2.8079    0.0000 C   0  0  0  0  0  0  0  0  0
   -1.7587   -1.9829    0.0000 C   0  0  0  0  0  0  0  0  0
   -1.0442   -1.5704    0.0000 C   0  0  0  0  0  0  0  0  0
   -1.0442   -0.7454    0.0000 C   0  0  0  0  0  0  0  0  0
   -1.7587   -0.3329    0.0000 C   0  0  0  0  0  0  0  0  0
   -2.4731   -0.7454    0.0000 C   0  0  0  0  0  0  0  0  0
   -2.4731   -1.5704    0.0000 C   0  0  0  0  0  0  0  0  0
   -3.1876   -1.9829    0.0000 C   0  0  0  0  0  0  0  0  0
   -3.9021   -1.5704    0.0000 C   0  0  0  0  0  0  0  0  0
   -3.9021   -0.7454    0.0000 C   0  0  0  0  0  0  0  0  0
   -3.1876   -0.3329    0.0000 C   0  0  0  0  0  0  0  0  0
   -0.3297   -0.3329    0.0000 C   0  0  0  0  0  0  0  0  0
    0.3848   -0.7454    0.0000 C   0  0  0  0  0  0  0  0  0
    0.3848   -1.5704    0.0000 C   0  0  0  0  0  0  0  0  0
   -0.3297   -1.9829    0.0000 C   0  0  0  0  0  0  0  0  0
   -0.3297   -4.4579    0.0000 C   0  0  0  0  0  0  0  0  0
  1  2  1  0  0  0  0
  1 18  1  0  0  0  0
  2  3  1  0  0  0  0
  3  4  1  0  0  0  0
  4  5  1  0  0  0  0
  4  9  1  0  0  0  0
  5  6  4  0  0  0  0
  5 17  4  0  0  0  0
  6  7  1  0  0  0  0
  6 14  4  0  0  0  0
  7  8  1  0  0  0  0
  8  9  4  0  0  0  0
  8 13  4  0  0  0  0
  9 10  4  0  0  0  0
 10 11  4  0  0  0  0
 11 12  4  0  0  0  0
 12 13  4  0  0  0  0
 14 15  4  0  0  0  0
 15 16  4  0  0  0  0
 16 17  4  0  0  0  0
M  END
>  <Name_Molregno>
591899

>  <5-HT2A>
7.04

>  <HISTAMINE H1>
7.32

$$$$
592229
  Marvin  02231216192D 0   1.00000     0.00000     0

 22 24  0  0  0  0  0  0  0  0999 V2000
   -1.3703   -0.5135    0.0000 S   0  0  0  0  0  0  0  0  0
   -0.5857   -0.7684    0.0000 O   0  0  0  0  0  0  0  0  0
   -2.1549   -0.2586    0.0000 O   0  0  0  0  0  0  0  0  0
   -1.6252   -1.2981    0.0000 C   0  0  0  0  0  0  0  0  0
   -1.0732   -1.9112    0.0000 C   0  0  0  0  0  0  0  0  0
   -1.3281   -2.6958    0.0000 C   0  0  0  0  0  0  0  0  0
   -2.1351   -2.8674    0.0000 C   0  0  0  0  0  0  0  0  0
   -2.6871   -2.2543    0.0000 C   0  0  0  0  0  0  0  0  0
   -2.4322   -1.4697    0.0000 C   0  0  0  0  0  0  0  0  0
   -1.1154    0.2711    0.0000 C   0  0  0  0  0  0  0  0  0
   -0.3307    0.5261    0.0000 C   0  0  0  0  0  0  0  0  0
   -0.3307    1.3511    0.0000 C   0  0  0  0  0  0  0  0  0
   -1.1154    1.6060    0.0000 N   0  0  0  0  0  0  0  0  0
   -1.6003    0.9386    0.0000 C   0  0  0  0  0  0  0  0  0
    0.3837    1.7636    0.0000 C   0  0  0  0  0  0  0  0  0
    1.0982    1.3511    0.0000 C   0  0  0  0  0  0  0  0  0
    1.0982    0.5261    0.0000 C   0  0  0  0  0  0  0  0  0
    0.3837    0.1136    0.0000 C   0  0  0  0  0  0  0  0  0
    0.3837   -0.7114    0.0000 C   0  0  0  0  0  0  0  0  0
    1.0982   -1.1239    0.0000 C   0  0  0  0  0  0  0  0  0
    1.0982   -1.9489    0.0000 N   0  0  0  0  0  0  0  0  0
    1.8127   -2.3614    0.0000 C   0  0  0  0  0  0  0  0  0
  1  2  2  0  0  0  0
  1  3  2  0  0  0  0
  1  4  1  0  0  0  0
  1 10  1  0  0  0  0
  4  5  4  0  0  0  0
  4  9  4  0  0  0  0
  5  6  4  0  0  0  0
  6  7  4  0  0  0  0
  7  8  4  0  0  0  0
  8  9  4  0  0  0  0
 10 11  4  0  0  0  0
 10 14  4  0  0  0  0
 11 12  4  0  0  0  0
 11 18  4  0  0  0  0
 12 13  4  0  0  0  0
 12 15  4  0  0  0  0
 13 14  4  0  0  0  0
 15 16  4  0  0  0  0
 16 17  4  0  0  0  0
 17 18  4  0  0  0  0
 18 19  1  0  0  0  0
 19 20  1  0  0  0  0
 20 21  1  0  0  0  0
 21 22  1  0  0  0  0
M  STY  1   1 DAT
M  SAL   1  1  13
M  SDT   1 MRV_IMPLICIT_H                                        
M  SDD   1     0.0000    0.0000    DR    ALL  0       0  
M  SED   1 IMPL_H1
M  END
>  <Name_Molregno>
592229

>  <5-HT2A>
6.56

>  <Norepinephrine transporter>
6.51

$$$$
592241
  Marvin  02231216192D 0   1.00000     0.00000     0

 23 25  0  0  0  0  0  0  0  0999 V2000
    0.1716   -0.8406    0.0000 S   0  0  0  0  0  0  0  0  0
    0.9786   -0.6691    0.0000 O   0  0  0  0  0  0  0  0  0
    0.0001   -0.0336    0.0000 O   0  0  0  0  0  0  0  0  0
    0.3431   -1.6476    0.0000 C   0  0  0  0  0  0  0  0  0
    1.1278   -1.9025    0.0000 C   0  0  0  0  0  0  0  0  0
    1.2993   -2.7095    0.0000 C   0  0  0  0  0  0  0  0  0
    0.6862   -3.2615    0.0000 C   0  0  0  0  0  0  0  0  0
   -0.0984   -3.0066    0.0000 C   0  0  0  0  0  0  0  0  0
   -0.2699   -2.1996    0.0000 C   0  0  0  0  0  0  0  0  0
   -0.6354   -1.0121    0.0000 C   0  0  0  0  0  0  0  0  0
   -1.2484   -0.4601    0.0000 C   0  0  0  0  0  0  0  0  0
   -1.9629   -0.8726    0.0000 C   0  0  0  0  0  0  0  0  0
   -1.7914   -1.6796    0.0000 N   0  0  0  0  0  0  0  0  0
   -0.9709   -1.7658    0.0000 C   0  0  0  0  0  0  0  0  0
   -2.6774   -0.4601    0.0000 C   0  0  0  0  0  0  0  0  0
   -2.6774    0.3649    0.0000 C   0  0  0  0  0  0  0  0  0
   -1.9629    0.7774    0.0000 C   0  0  0  0  0  0  0  0  0
   -1.2484    0.3649    0.0000 C   0  0  0  0  0  0  0  0  0
   -0.5340    0.7774    0.0000 C   0  0  0  0  0  0  0  0  0
    0.1805    0.3649    0.0000 C   0  0  0  0  0  0  0  0  0
    0.8950    0.7774    0.0000 N   0  0  0  0  0  0  0  0  0
    1.6094    0.3649    0.0000 C   0  0  0  0  0  0  0  0  0
    1.6094   -0.4601    0.0000 C   0  0  0  0  0  0  0  0  0
  1  2  2  0  0  0  0
  1  3  2  0  0  0  0
  1  4  1  0  0  0  0
  1 10  1  0  0  0  0
  4  5  4  0  0  0  0
  4  9  4  0  0  0  0
  5  6  4  0  0  0  0
  6  7  4  0  0  0  0
  7  8  4  0  0  0  0
  8  9  4  0  0  0  0
 10 11  4  0  0  0  0
 10 14  4  0  0  0  0
 11 12  4  0  0  0  0
 11 18  4  0  0  0  0
 12 13  4  0  0  0  0
 12 15  4  0  0  0  0
 13 14  4  0  0  0  0
 15 16  4  0  0  0  0
 16 17  4  0  0  0  0
 17 18  4  0  0  0  0
 18 19  1  0  0  0  0
 19 20  1  0  0  0  0
 20 21  1  0  0  0  0
 21 22  1  0  0  0  0
 22 23  1  0  0  0  0
M  STY  1   1 DAT
M  SAL   1  1  13
M  SDT   1 MRV_IMPLICIT_H                                        
M  SDD   1     0.0000    0.0000    DR    ALL  0       0  
M  SED   1 IMPL_H1
M  END
>  <Name_Molregno>
592241

>  <5-HT2A>
6.41

>  <Norepinephrine transporter>
7.11

$$$$
592242
  Marvin  02231216192D 0   1.00000     0.00000     0

 24 26  0  0  0  0  0  0  0  0999 V2000
   -0.2843   -1.6906    0.0000 S   0  0  0  0  0  0  0  0  0
    0.3288   -1.1386    0.0000 O   0  0  0  0  0  0  0  0  0
   -0.8974   -2.2426    0.0000 O   0  0  0  0  0  0  0  0  0
    0.2677   -2.3037    0.0000 C   0  0  0  0  0  0  0  0  0
    1.0747   -2.1322    0.0000 C   0  0  0  0  0  0  0  0  0
    1.6267   -2.7453    0.0000 C   0  0  0  0  0  0  0  0  0
    1.3718   -3.5299    0.0000 C   0  0  0  0  0  0  0  0  0
    0.5648   -3.7014    0.0000 C   0  0  0  0  0  0  0  0  0
    0.0128   -3.0883    0.0000 C   0  0  0  0  0  0  0  0  0
   -0.8364   -1.0775    0.0000 C   0  0  0  0  0  0  0  0  0
   -0.6648   -0.2705    0.0000 C   0  0  0  0  0  0  0  0  0
   -1.3793    0.1420    0.0000 C   0  0  0  0  0  0  0  0  0
   -1.9924   -0.4101    0.0000 N   0  0  0  0  0  0  0  0  0
   -1.6568   -1.1638    0.0000 C   0  0  0  0  0  0  0  0  0
   -1.3793    0.9670    0.0000 C   0  0  0  0  0  0  0  0  0
   -0.6648    1.3795    0.0000 C   0  0  0  0  0  0  0  0  0
    0.0496    0.9670    0.0000 C   0  0  0  0  0  0  0  0  0
    0.0496    0.1420    0.0000 C   0  0  0  0  0  0  0  0  0
    0.7641   -0.2705    0.0000 C   0  0  0  0  0  0  0  0  0
    1.4786    0.1420    0.0000 C   0  0  0  0  0  0  0  0  0
    2.1931   -0.2705    0.0000 N   0  0  0  0  0  0  0  0  0
    2.9075    0.1420    0.0000 C   0  0  0  0  0  0  0  0  0
    3.6220   -0.2705    0.0000 C   0  0  0  0  0  0  0  0  0
    4.3365    0.1420    0.0000 C   0  0  0  0  0  0  0  0  0
  1  2  2  0  0  0  0
  1  3  2  0  0  0  0
  1  4  1  0  0  0  0
  1 10  1  0  0  0  0
  4  5  4  0  0  0  0
  4  9  4  0  0  0  0
  5  6  4  0  0  0  0
  6  7  4  0  0  0  0
  7  8  4  0  0  0  0
  8  9  4  0  0  0  0
 10 11  4  0  0  0  0
 10 14  4  0  0  0  0
 11 12  4  0  0  0  0
 11 18  4  0  0  0  0
 12 13  4  0  0  0  0
 12 15  4  0  0  0  0
 13 14  4  0  0  0  0
 15 16  4  0  0  0  0
 16 17  4  0  0  0  0
 17 18  4  0  0  0  0
 18 19  1  0  0  0  0
 19 20  1  0  0  0  0
 20 21  1  0  0  0  0
 21 22  1  0  0  0  0
 22 23  1  0  0  0  0
 23 24  1  0  0  0  0
M  STY  1   1 DAT
M  SAL   1  1  13
M  SDT   1 MRV_IMPLICIT_H                                        
M  SDD   1     0.0000    0.0000    DR    ALL  0       0  
M  SED   1 IMPL_H1
M  END
>  <Name_Molregno>
592242

>  <5-HT2A>
6.44

>  <Norepinephrine transporter>
6.31

$$$$
592252
  Marvin  02231216192D 0   1.00000     0.00000     0

 24 26  0  0  0  0  0  0  0  0999 V2000
    0.7658   -1.0143    0.0000 S   0  0  0  0  0  0  0  0  0
    1.5727   -0.8428    0.0000 O   0  0  0  0  0  0  0  0  0
    0.5942   -0.2073    0.0000 O   0  0  0  0  0  0  0  0  0
    0.9373   -1.8213    0.0000 C   0  0  0  0  0  0  0  0  0
    1.7219   -2.0762    0.0000 C   0  0  0  0  0  0  0  0  0
    1.8934   -2.8832    0.0000 C   0  0  0  0  0  0  0  0  0
    1.2804   -3.4352    0.0000 C   0  0  0  0  0  0  0  0  0
    0.4957   -3.1803    0.0000 C   0  0  0  0  0  0  0  0  0
    0.3242   -2.3733    0.0000 C   0  0  0  0  0  0  0  0  0
   -0.0412   -1.1858    0.0000 C   0  0  0  0  0  0  0  0  0
   -0.6543   -0.6338    0.0000 C   0  0  0  0  0  0  0  0  0
   -1.3688   -1.0463    0.0000 C   0  0  0  0  0  0  0  0  0
   -1.1972   -1.8533    0.0000 N   0  0  0  0  0  0  0  0  0
   -0.3768   -1.9395    0.0000 C   0  0  0  0  0  0  0  0  0
   -2.0832   -0.6338    0.0000 C   0  0  0  0  0  0  0  0  0
   -2.0832    0.1912    0.0000 C   0  0  0  0  0  0  0  0  0
   -1.3688    0.6037    0.0000 C   0  0  0  0  0  0  0  0  0
   -0.6543    0.1912    0.0000 C   0  0  0  0  0  0  0  0  0
    0.0602    0.6037    0.0000 C   0  0  0  0  0  0  0  0  0
    0.7746    0.1912    0.0000 C   0  0  0  0  0  0  0  0  0
    1.4891    0.6037    0.0000 N   0  0  0  0  0  0  0  0  0
    2.2036    0.1912    0.0000 C   0  0  0  0  0  0  0  0  0
    2.9181    0.6037    0.0000 C   0  0  0  0  0  0  0  0  0
    2.2036   -0.6338    0.0000 C   0  0  0  0  0  0  0  0  0
  1  2  2  0  0  0  0
  1  3  2  0  0  0  0
  1  4  1  0  0  0  0
  1 10  1  0  0  0  0
  4  5  4  0  0  0  0
  4  9  4  0  0  0  0
  5  6  4  0  0  0  0
  6  7  4  0  0  0  0
  7  8  4  0  0  0  0
  8  9  4  0  0  0  0
 10 11  4  0  0  0  0
 10 14  4  0  0  0  0
 11 12  4  0  0  0  0
 11 18  4  0  0  0  0
 12 13  4  0  0  0  0
 12 15  4  0  0  0  0
 13 14  4  0  0  0  0
 15 16  4  0  0  0  0
 16 17  4  0  0  0  0
 17 18  4  0  0  0  0
 18 19  1  0  0  0  0
 19 20  1  0  0  0  0
 20 21  1  0  0  0  0
 21 22  1  0  0  0  0
 22 23  1  0  0  0  0
 22 24  1  0  0  0  0
M  STY  1   1 DAT
M  SAL   1  1  13
M  SDT   1 MRV_IMPLICIT_H                                        
M  SDD   1     0.0000    0.0000    DR    ALL  0       0  
M  SED   1 IMPL_H1
M  END
>  <Name_Molregno>
592252

>  <5-HT2A>
6.96

>  <Norepinephrine transporter>
7.6

$$$$
592253
  Marvin  02231216192D 0   1.00000     0.00000     0

 26 29  0  0  0  0  0  0  0  0999 V2000
    0.4014    0.3332    0.0000 S   0  0  0  0  0  0  0  0  0
    1.1860    0.0783    0.0000 O   0  0  0  0  0  0  0  0  0
   -0.3832    0.5881    0.0000 O   0  0  0  0  0  0  0  0  0
    0.1465   -0.4514    0.0000 C   0  0  0  0  0  0  0  0  0
    0.6985   -1.0645    0.0000 C   0  0  0  0  0  0  0  0  0
    0.4436   -1.8491    0.0000 C   0  0  0  0  0  0  0  0  0
   -0.3634   -2.0207    0.0000 C   0  0  0  0  0  0  0  0  0
   -0.9154   -1.4076    0.0000 C   0  0  0  0  0  0  0  0  0
   -0.6605   -0.6229    0.0000 C   0  0  0  0  0  0  0  0  0
    0.6563    1.1178    0.0000 C   0  0  0  0  0  0  0  0  0
    1.4410    1.3728    0.0000 C   0  0  0  0  0  0  0  0  0
    1.4410    2.1978    0.0000 C   0  0  0  0  0  0  0  0  0
    0.6563    2.4527    0.0000 N   0  0  0  0  0  0  0  0  0
    0.1714    1.7853    0.0000 C   0  0  0  0  0  0  0  0  0
    2.1554    2.6103    0.0000 C   0  0  0  0  0  0  0  0  0
    2.8699    2.1978    0.0000 C   0  0  0  0  0  0  0  0  0
    2.8699    1.3728    0.0000 C   0  0  0  0  0  0  0  0  0
    2.1554    0.9603    0.0000 C   0  0  0  0  0  0  0  0  0
    2.1554    0.1353    0.0000 C   0  0  0  0  0  0  0  0  0
    1.4410   -0.2772    0.0000 C   0  0  0  0  0  0  0  0  0
    1.4410   -1.1022    0.0000 N   0  0  0  0  0  0  0  0  0
    2.1554   -1.5147    0.0000 C   0  0  0  0  0  0  0  0  0
    2.9091   -1.1792    0.0000 C   0  0  0  0  0  0  0  0  0
    3.4611   -1.7923    0.0000 C   0  0  0  0  0  0  0  0  0
    3.0486   -2.5067    0.0000 C   0  0  0  0  0  0  0  0  0
    2.2417   -2.3352    0.0000 C   0  0  0  0  0  0  0  0  0
  1  2  2  0  0  0  0
  1  3  2  0  0  0  0
  1  4  1  0  0  0  0
  1 10  1  0  0  0  0
  4  5  4  0  0  0  0
  4  9  4  0  0  0  0
  5  6  4  0  0  0  0
  6  7  4  0  0  0  0
  7  8  4  0  0  0  0
  8  9  4  0  0  0  0
 10 11  4  0  0  0  0
 10 14  4  0  0  0  0
 11 12  4  0  0  0  0
 11 18  4  0  0  0  0
 12 13  4  0  0  0  0
 12 15  4  0  0  0  0
 13 14  4  0  0  0  0
 15 16  4  0  0  0  0
 16 17  4  0  0  0  0
 17 18  4  0  0  0  0
 18 19  1  0  0  0  0
 19 20  1  0  0  0  0
 20 21  1  0  0  0  0
 21 22  1  0  0  0  0
 22 23  1  0  0  0  0
 22 26  1  0  0  0  0
 23 24  1  0  0  0  0
 24 25  1  0  0  0  0
 25 26  1  0  0  0  0
M  STY  1   1 DAT
M  SAL   1  1  13
M  SDT   1 MRV_IMPLICIT_H                                        
M  SDD   1     0.0000    0.0000    DR    ALL  0       0  
M  SED   1 IMPL_H1
M  END
>  <Name_Molregno>
592253

>  <5-HT2A>
7.72

>  <Norepinephrine transporter>
6.37

$$$$
592270
  Marvin  02231216192D 0   1.00000     0.00000     0

 23 25  0  0  0  0  0  0  0  0999 V2000
   -1.3850   -0.5234    0.0000 S   0  0  0  0  0  0  0  0  0
   -0.6004   -0.7783    0.0000 O   0  0  0  0  0  0  0  0  0
   -2.1697   -0.2684    0.0000 O   0  0  0  0  0  0  0  0  0
   -1.6400   -1.3080    0.0000 C   0  0  0  0  0  0  0  0  0
   -1.0880   -1.9211    0.0000 C   0  0  0  0  0  0  0  0  0
   -1.3429   -2.7057    0.0000 C   0  0  0  0  0  0  0  0  0
   -2.1499   -2.8772    0.0000 C   0  0  0  0  0  0  0  0  0
   -2.7019   -2.2641    0.0000 C   0  0  0  0  0  0  0  0  0
   -2.4470   -1.4795    0.0000 C   0  0  0  0  0  0  0  0  0
   -1.1301    0.2613    0.0000 C   0  0  0  0  0  0  0  0  0
   -0.3455    0.5162    0.0000 C   0  0  0  0  0  0  0  0  0
   -0.3455    1.3412    0.0000 C   0  0  0  0  0  0  0  0  0
   -1.1301    1.5961    0.0000 N   0  0  0  0  0  0  0  0  0
   -1.6150    0.9287    0.0000 C   0  0  0  0  0  0  0  0  0
    0.3690    1.7537    0.0000 C   0  0  0  0  0  0  0  0  0
    1.0835    1.3412    0.0000 C   0  0  0  0  0  0  0  0  0
    1.0835    0.5162    0.0000 C   0  0  0  0  0  0  0  0  0
    0.3690    0.1037    0.0000 C   0  0  0  0  0  0  0  0  0
    0.3690   -0.7213    0.0000 C   0  0  0  0  0  0  0  0  0
    1.0835   -1.1338    0.0000 C   0  0  0  0  0  0  0  0  0
    1.0835   -1.9588    0.0000 N   0  0  0  0  0  0  0  0  0
    1.7979   -2.3713    0.0000 C   0  0  0  0  0  0  0  0  0
    0.3690   -2.3713    0.0000 C   0  0  0  0  0  0  0  0  0
  1  2  2  0  0  0  0
  1  3  2  0  0  0  0
  1  4  1  0  0  0  0
  1 10  1  0  0  0  0
  4  5  4  0  0  0  0
  4  9  4  0  0  0  0
  5  6  4  0  0  0  0
  6  7  4  0  0  0  0
  7  8  4  0  0  0  0
  8  9  4  0  0  0  0
 10 11  4  0  0  0  0
 10 14  4  0  0  0  0
 11 12  4  0  0  0  0
 11 18  4  0  0  0  0
 12 13  4  0  0  0  0
 12 15  4  0  0  0  0
 13 14  4  0  0  0  0
 15 16  4  0  0  0  0
 16 17  4  0  0  0  0
 17 18  4  0  0  0  0
 18 19  1  0  0  0  0
 19 20  1  0  0  0  0
 20 21  1  0  0  0  0
 21 22  1  0  0  0  0
 21 23  1  0  0  0  0
M  STY  1   1 DAT
M  SAL   1  1  13
M  SDT   1 MRV_IMPLICIT_H                                        
M  SDD   1     0.0000    0.0000    DR    ALL  0       0  
M  SED   1 IMPL_H1
M  END
>  <Name_Molregno>
592270

>  <5-HT2A>
6.58

>  <Norepinephrine transporter>
7.35

$$$$
592271
  Marvin  02231216192D 0   1.00000     0.00000     0

 24 26  0  0  0  0  0  0  0  0999 V2000
    0.8141   -0.9643    0.0000 S   0  0  0  0  0  0  0  0  0
    1.6211   -0.7928    0.0000 O   0  0  0  0  0  0  0  0  0
    0.6426   -0.1573    0.0000 O   0  0  0  0  0  0  0  0  0
    0.9857   -1.7713    0.0000 C   0  0  0  0  0  0  0  0  0
    1.7703   -2.0262    0.0000 C   0  0  0  0  0  0  0  0  0
    1.9418   -2.8332    0.0000 C   0  0  0  0  0  0  0  0  0
    1.3287   -3.3852    0.0000 C   0  0  0  0  0  0  0  0  0
    0.5441   -3.1303    0.0000 C   0  0  0  0  0  0  0  0  0
    0.3726   -2.3233    0.0000 C   0  0  0  0  0  0  0  0  0
    0.0072   -1.1358    0.0000 C   0  0  0  0  0  0  0  0  0
   -0.6059   -0.5838    0.0000 C   0  0  0  0  0  0  0  0  0
   -1.3204   -0.9963    0.0000 C   0  0  0  0  0  0  0  0  0
   -1.1489   -1.8033    0.0000 N   0  0  0  0  0  0  0  0  0
   -0.3284   -1.8895    0.0000 C   0  0  0  0  0  0  0  0  0
   -2.0349   -0.5838    0.0000 C   0  0  0  0  0  0  0  0  0
   -2.0349    0.2412    0.0000 C   0  0  0  0  0  0  0  0  0
   -1.3204    0.6537    0.0000 C   0  0  0  0  0  0  0  0  0
   -0.6059    0.2412    0.0000 C   0  0  0  0  0  0  0  0  0
    0.1085    0.6537    0.0000 C   0  0  0  0  0  0  0  0  0
    0.8230    0.2412    0.0000 C   0  0  0  0  0  0  0  0  0
    1.5375    0.6537    0.0000 N   0  0  0  0  0  0  0  0  0
    2.2519    0.2412    0.0000 C   0  0  0  0  0  0  0  0  0
    2.2519   -0.5838    0.0000 C   0  0  0  0  0  0  0  0  0
    1.5375    1.4787    0.0000 C   0  0  0  0  0  0  0  0  0
  1  2  2  0  0  0  0
  1  3  2  0  0  0  0
  1  4  1  0  0  0  0
  1 10  1  0  0  0  0
  4  5  4  0  0  0  0
  4  9  4  0  0  0  0
  5  6  4  0  0  0  0
  6  7  4  0  0  0  0
  7  8  4  0  0  0  0
  8  9  4  0  0  0  0
 10 11  4  0  0  0  0
 10 14  4  0  0  0  0
 11 12  4  0  0  0  0
 11 18  4  0  0  0  0
 12 13  4  0  0  0  0
 12 15  4  0  0  0  0
 13 14  4  0  0  0  0
 15 16  4  0  0  0  0
 16 17  4  0  0  0  0
 17 18  4  0  0  0  0
 18 19  1  0  0  0  0
 19 20  1  0  0  0  0
 20 21  1  0  0  0  0
 21 22  1  0  0  0  0
 21 24  1  0  0  0  0
 22 23  1  0  0  0  0
M  STY  1   1 DAT
M  SAL   1  1  13
M  SDT   1 MRV_IMPLICIT_H                                        
M  SDD   1     0.0000    0.0000    DR    ALL  0       0  
M  SED   1 IMPL_H1
M  END
>  <Name_Molregno>
592271

>  <5-HT2A>
6.65

>  <Norepinephrine transporter>
7.55

$$$$
592289
  Marvin  02231216192D 0   1.00000     0.00000     0

 25 28  0  0  0  0  0  0  0  0999 V2000
   -0.4821   -0.5524    0.0000 S   0  0  0  0  0  0  0  0  0
    0.3025   -0.8073    0.0000 O   0  0  0  0  0  0  0  0  0
   -1.2667   -0.2974    0.0000 O   0  0  0  0  0  0  0  0  0
   -0.7370   -1.3370    0.0000 C   0  0  0  0  0  0  0  0  0
   -0.1850   -1.9501    0.0000 C   0  0  0  0  0  0  0  0  0
   -0.4400   -2.7347    0.0000 C   0  0  0  0  0  0  0  0  0
   -1.2469   -2.9062    0.0000 C   0  0  0  0  0  0  0  0  0
   -1.7990   -2.2931    0.0000 C   0  0  0  0  0  0  0  0  0
   -1.5440   -1.5085    0.0000 C   0  0  0  0  0  0  0  0  0
   -0.2272    0.2323    0.0000 C   0  0  0  0  0  0  0  0  0
    0.5575    0.4872    0.0000 C   0  0  0  0  0  0  0  0  0
    0.5575    1.3122    0.0000 C   0  0  0  0  0  0  0  0  0
   -0.2272    1.5671    0.0000 N   0  0  0  0  0  0  0  0  0
   -0.7121    0.8997    0.0000 C   0  0  0  0  0  0  0  0  0
    1.2719    1.7247    0.0000 C   0  0  0  0  0  0  0  0  0
    1.9864    1.3122    0.0000 C   0  0  0  0  0  0  0  0  0
    1.9864    0.4872    0.0000 C   0  0  0  0  0  0  0  0  0
    1.2719    0.0747    0.0000 C   0  0  0  0  0  0  0  0  0
    1.2719   -0.7503    0.0000 C   0  0  0  0  0  0  0  0  0
    1.9864   -1.1628    0.0000 C   0  0  0  0  0  0  0  0  0
    1.9864   -1.9878    0.0000 N   0  0  0  0  0  0  0  0  0
    2.6538   -2.4727    0.0000 C   0  0  0  0  0  0  0  0  0
    2.3989   -3.2573    0.0000 C   0  0  0  0  0  0  0  0  0
    1.5739   -3.2573    0.0000 C   0  0  0  0  0  0  0  0  0
    1.3190   -2.4727    0.0000 C   0  0  0  0  0  0  0  0  0
  1  2  2  0  0  0  0
  1  3  2  0  0  0  0
  1  4  1  0  0  0  0
  1 10  1  0  0  0  0
  4  5  4  0  0  0  0
  4  9  4  0  0  0  0
  5  6  4  0  0  0  0
  6  7  4  0  0  0  0
  7  8  4  0  0  0  0
  8  9  4  0  0  0  0
 10 11  4  0  0  0  0
 10 14  4  0  0  0  0
 11 12  4  0  0  0  0
 11 18  4  0  0  0  0
 12 13  4  0  0  0  0
 12 15  4  0  0  0  0
 13 14  4  0  0  0  0
 15 16  4  0  0  0  0
 16 17  4  0  0  0  0
 17 18  4  0  0  0  0
 18 19  1  0  0  0  0
 19 20  1  0  0  0  0
 20 21  1  0  0  0  0
 21 22  1  0  0  0  0
 21 25  1  0  0  0  0
 22 23  1  0  0  0  0
 23 24  1  0  0  0  0
 24 25  1  0  0  0  0
M  STY  1   1 DAT
M  SAL   1  1  13
M  SDT   1 MRV_IMPLICIT_H                                        
M  SDD   1     0.0000    0.0000    DR    ALL  0       0  
M  SED   1 IMPL_H1
M  END
>  <Name_Molregno>
592289

>  <5-HT2A>
6.93

>  <Norepinephrine transporter>
7.14

$$$$
592290
  Marvin  02231216192D 0   1.00000     0.00000     0

 26 29  0  0  0  0  0  0  0  0999 V2000
   -0.4360   -0.4905    0.0000 S   0  0  0  0  0  0  0  0  0
    0.3487   -0.7454    0.0000 O   0  0  0  0  0  0  0  0  0
   -1.2206   -0.2355    0.0000 O   0  0  0  0  0  0  0  0  0
   -0.6909   -1.2751    0.0000 C   0  0  0  0  0  0  0  0  0
   -0.1389   -1.8882    0.0000 C   0  0  0  0  0  0  0  0  0
   -0.3938   -2.6728    0.0000 C   0  0  0  0  0  0  0  0  0
   -1.2008   -2.8443    0.0000 C   0  0  0  0  0  0  0  0  0
   -1.7528   -2.2312    0.0000 C   0  0  0  0  0  0  0  0  0
   -1.4979   -1.4466    0.0000 C   0  0  0  0  0  0  0  0  0
   -0.1810    0.2942    0.0000 C   0  0  0  0  0  0  0  0  0
    0.6036    0.5491    0.0000 C   0  0  0  0  0  0  0  0  0
    0.6036    1.3741    0.0000 C   0  0  0  0  0  0  0  0  0
   -0.1810    1.6290    0.0000 N   0  0  0  0  0  0  0  0  0
   -0.6659    0.9616    0.0000 C   0  0  0  0  0  0  0  0  0
    1.3181    1.7866    0.0000 C   0  0  0  0  0  0  0  0  0
    2.0325    1.3741    0.0000 C   0  0  0  0  0  0  0  0  0
    2.0325    0.5491    0.0000 C   0  0  0  0  0  0  0  0  0
    1.3181    0.1366    0.0000 C   0  0  0  0  0  0  0  0  0
    1.3181   -0.6884    0.0000 C   0  0  0  0  0  0  0  0  0
    2.0325   -1.1009    0.0000 C   0  0  0  0  0  0  0  0  0
    2.0325   -1.9259    0.0000 N   0  0  0  0  0  0  0  0  0
    2.7470   -2.3384    0.0000 C   0  0  0  0  0  0  0  0  0
    2.7470   -3.1634    0.0000 C   0  0  0  0  0  0  0  0  0
    2.0325   -3.5759    0.0000 C   0  0  0  0  0  0  0  0  0
    1.3181   -3.1634    0.0000 C   0  0  0  0  0  0  0  0  0
    1.3181   -2.3384    0.0000 C   0  0  0  0  0  0  0  0  0
  1  2  2  0  0  0  0
  1  3  2  0  0  0  0
  1  4  1  0  0  0  0
  1 10  1  0  0  0  0
  4  5  4  0  0  0  0
  4  9  4  0  0  0  0
  5  6  4  0  0  0  0
  6  7  4  0  0  0  0
  7  8  4  0  0  0  0
  8  9  4  0  0  0  0
 10 11  4  0  0  0  0
 10 14  4  0  0  0  0
 11 12  4  0  0  0  0
 11 18  4  0  0  0  0
 12 13  4  0  0  0  0
 12 15  4  0  0  0  0
 13 14  4  0  0  0  0
 15 16  4  0  0  0  0
 16 17  4  0  0  0  0
 17 18  4  0  0  0  0
 18 19  1  0  0  0  0
 19 20  1  0  0  0  0
 20 21  1  0  0  0  0
 21 22  1  0  0  0  0
 21 26  1  0  0  0  0
 22 23  1  0  0  0  0
 23 24  1  0  0  0  0
 24 25  1  0  0  0  0
 25 26  1  0  0  0  0
M  STY  1   1 DAT
M  SAL   1  1  13
M  SDT   1 MRV_IMPLICIT_H                                        
M  SDD   1     0.0000    0.0000    DR    ALL  0       0  
M  SED   1 IMPL_H1
M  END
>  <Name_Molregno>
592290

>  <5-HT2A>
7.23

>  <5-HT2C>
5.62

>  <5-HT6>
6.36

>  <Norepinephrine transporter>
7.57

$$$$
592298
  Marvin  02231216192D 0   1.00000     0.00000     0

 27 30  0  0  0  0  0  0  0  0999 V2000
   -0.3809   -0.4195    0.0000 S   0  0  0  0  0  0  0  0  0
    0.4037   -0.6744    0.0000 O   0  0  0  0  0  0  0  0  0
   -1.1655   -0.1645    0.0000 O   0  0  0  0  0  0  0  0  0
   -0.6358   -1.2041    0.0000 C   0  0  0  0  0  0  0  0  0
   -0.0838   -1.8172    0.0000 C   0  0  0  0  0  0  0  0  0
   -0.3387   -2.6018    0.0000 C   0  0  0  0  0  0  0  0  0
   -1.1457   -2.7733    0.0000 C   0  0  0  0  0  0  0  0  0
   -1.6977   -2.1603    0.0000 C   0  0  0  0  0  0  0  0  0
   -1.4428   -1.3756    0.0000 C   0  0  0  0  0  0  0  0  0
   -0.1259    0.3651    0.0000 C   0  0  0  0  0  0  0  0  0
    0.6587    0.6201    0.0000 C   0  0  0  0  0  0  0  0  0
    0.6587    1.4451    0.0000 C   0  0  0  0  0  0  0  0  0
   -0.1259    1.7000    0.0000 N   0  0  0  0  0  0  0  0  0
   -0.6109    1.0326    0.0000 C   0  0  0  0  0  0  0  0  0
    1.3732    1.8576    0.0000 C   0  0  0  0  0  0  0  0  0
    2.0876    1.4451    0.0000 C   0  0  0  0  0  0  0  0  0
    2.0876    0.6201    0.0000 C   0  0  0  0  0  0  0  0  0
    1.3732    0.2076    0.0000 C   0  0  0  0  0  0  0  0  0
    1.3732   -0.6174    0.0000 C   0  0  0  0  0  0  0  0  0
    2.0876   -1.0299    0.0000 C   0  0  0  0  0  0  0  0  0
    2.0876   -1.8549    0.0000 N   0  0  0  0  0  0  0  0  0
    2.8309   -2.2129    0.0000 C   0  0  0  0  0  0  0  0  0
    3.0145   -3.0172    0.0000 C   0  0  0  0  0  0  0  0  0
    2.5001   -3.6622    0.0000 C   0  0  0  0  0  0  0  0  0
    1.6751   -3.6622    0.0000 C   0  0  0  0  0  0  0  0  0
    1.1607   -3.0172    0.0000 C   0  0  0  0  0  0  0  0  0
    1.3443   -2.2129    0.0000 C   0  0  0  0  0  0  0  0  0
  1  2  2  0  0  0  0
  1  3  2  0  0  0  0
  1  4  1  0  0  0  0
  1 10  1  0  0  0  0
  4  5  4  0  0  0  0
  4  9  4  0  0  0  0
  5  6  4  0  0  0  0
  6  7  4  0  0  0  0
  7  8  4  0  0  0  0
  8  9  4  0  0  0  0
 10 11  4  0  0  0  0
 10 14  4  0  0  0  0
 11 12  4  0  0  0  0
 11 18  4  0  0  0  0
 12 13  4  0  0  0  0
 12 15  4  0  0  0  0
 13 14  4  0  0  0  0
 15 16  4  0  0  0  0
 16 17  4  0  0  0  0
 17 18  4  0  0  0  0
 18 19  1  0  0  0  0
 19 20  1  0  0  0  0
 20 21  1  0  0  0  0
 21 22  1  0  0  0  0
 21 27  1  0  0  0  0
 22 23  1  0  0  0  0
 23 24  1  0  0  0  0
 24 25  1  0  0  0  0
 25 26  1  0  0  0  0
 26 27  1  0  0  0  0
M  STY  1   1 DAT
M  SAL   1  1  13
M  SDT   1 MRV_IMPLICIT_H                                        
M  SDD   1     0.0000    0.0000    DR    ALL  0       0  
M  SED   1 IMPL_H1
M  END
>  <Name_Molregno>
592298

>  <5-HT2A>
7.48

>  <Norepinephrine transporter>
6.68

$$$$
592299
  Marvin  02231216192D 0   1.00000     0.00000     0

 27 30  0  0  1  0  0  0  0  0999 V2000
   -0.3775   -0.5452    0.0000 S   0  0  0  0  0  0  0  0  0
    0.4071   -0.8002    0.0000 O   0  0  0  0  0  0  0  0  0
   -1.1621   -0.2903    0.0000 O   0  0  0  0  0  0  0  0  0
   -0.6325   -1.3299    0.0000 C   0  0  0  0  0  0  0  0  0
   -0.0804   -1.9429    0.0000 C   0  0  0  0  0  0  0  0  0
   -0.3354   -2.7276    0.0000 C   0  0  0  0  0  0  0  0  0
   -1.1423   -2.8991    0.0000 C   0  0  0  0  0  0  0  0  0
   -1.6944   -2.2860    0.0000 C   0  0  0  0  0  0  0  0  0
   -1.4394   -1.5014    0.0000 C   0  0  0  0  0  0  0  0  0
   -0.1226    0.2394    0.0000 C   0  0  0  0  0  0  0  0  0
    0.6620    0.4943    0.0000 C   0  0  0  0  0  0  0  0  0
    0.6620    1.3193    0.0000 C   0  0  0  0  0  0  0  0  0
   -0.1226    1.5743    0.0000 N   0  0  0  0  0  0  0  0  0
   -0.6075    0.9068    0.0000 C   0  0  0  0  0  0  0  0  0
    1.3765    1.7318    0.0000 C   0  0  0  0  0  0  0  0  0
    2.0910    1.3193    0.0000 C   0  0  0  0  0  0  0  0  0
    2.0910    0.4943    0.0000 C   0  0  0  0  0  0  0  0  0
    1.3765    0.0818    0.0000 C   0  0  0  0  0  0  0  0  0
    1.3765   -0.7432    0.0000 C   0  0  0  0  0  0  0  0  0
    2.0910   -1.1557    0.0000 C   0  0  0  0  0  0  0  0  0
    2.0910   -1.9807    0.0000 N   0  0  0  0  0  0  0  0  0
    2.8055   -2.3932    0.0000 C   0  0  0  0  0  0  0  0  0
    2.8055   -3.2182    0.0000 C   0  0  0  0  0  0  0  0  0
    2.0910   -3.6307    0.0000 C   0  0  0  0  0  0  0  0  0
    1.3765   -3.2182    0.0000 C   0  0  0  0  0  0  0  0  0
    1.3765   -2.3932    0.0000 C   0  0  0  0  0  0  0  0  0
    0.6620   -1.9807    0.0000 C   0  0  0  0  0  0  0  0  0
  1  2  2  0  0  0  0
  1  3  2  0  0  0  0
  1  4  1  0  0  0  0
  1 10  1  0  0  0  0
  4  5  4  0  0  0  0
  4  9  4  0  0  0  0
  5  6  4  0  0  0  0
  6  7  4  0  0  0  0
  7  8  4  0  0  0  0
  8  9  4  0  0  0  0
 10 11  4  0  0  0  0
 10 14  4  0  0  0  0
 11 12  4  0  0  0  0
 11 18  4  0  0  0  0
 12 13  4  0  0  0  0
 12 15  4  0  0  0  0
 13 14  4  0  0  0  0
 15 16  4  0  0  0  0
 16 17  4  0  0  0  0
 17 18  4  0  0  0  0
 18 19  1  0  0  0  0
 19 20  1  0  0  0  0
 20 21  1  0  0  0  0
 21 22  1  0  0  0  0
 21 26  1  0  0  0  0
 22 23  1  0  0  0  0
 23 24  1  0  0  0  0
 24 25  1  0  0  0  0
 25 26  1  0  0  0  0
 26 27  1  0  0  0  0
M  STY  1   1 DAT
M  SAL   1  1  13
M  SDT   1 MRV_IMPLICIT_H                                        
M  SDD   1     0.0000    0.0000    DR    ALL  0       0  
M  SED   1 IMPL_H1
M  END
>  <Name_Molregno>
592299

>  <5-HT2A>
7.05

>  <Norepinephrine transporter>
6.9

$$$$
592322
  Marvin  02231216192D 0   1.00000     0.00000     0

 27 30  0  0  1  0  0  0  0  0999 V2000
   -1.8540   -0.4672    0.0000 S   0  0  0  0  0  0  0  0  0
   -1.0694   -0.7221    0.0000 O   0  0  0  0  0  0  0  0  0
   -2.6387   -0.2122    0.0000 O   0  0  0  0  0  0  0  0  0
   -2.1090   -1.2518    0.0000 C   0  0  0  0  0  0  0  0  0
   -1.5569   -1.8649    0.0000 C   0  0  0  0  0  0  0  0  0
   -1.8119   -2.6495    0.0000 C   0  0  0  0  0  0  0  0  0
   -2.6189   -2.8210    0.0000 C   0  0  0  0  0  0  0  0  0
   -3.1709   -2.2079    0.0000 C   0  0  0  0  0  0  0  0  0
   -2.9159   -1.4233    0.0000 C   0  0  0  0  0  0  0  0  0
   -1.5991    0.3174    0.0000 C   0  0  0  0  0  0  0  0  0
   -0.8145    0.5724    0.0000 C   0  0  0  0  0  0  0  0  0
   -0.8145    1.3974    0.0000 C   0  0  0  0  0  0  0  0  0
   -1.5991    1.6523    0.0000 N   0  0  0  0  0  0  0  0  0
   -2.0840    0.9849    0.0000 C   0  0  0  0  0  0  0  0  0
   -0.1000    1.8099    0.0000 C   0  0  0  0  0  0  0  0  0
    0.6145    1.3974    0.0000 C   0  0  0  0  0  0  0  0  0
    0.6145    0.5724    0.0000 C   0  0  0  0  0  0  0  0  0
   -0.1000    0.1599    0.0000 C   0  0  0  0  0  0  0  0  0
   -0.1000   -0.6651    0.0000 C   0  0  0  0  0  0  0  0  0
    0.6145   -1.0776    0.0000 C   0  0  0  0  0  0  0  0  0
    0.6145   -1.9026    0.0000 N   0  0  0  0  0  0  0  0  0
    1.3289   -2.3151    0.0000 C   0  0  0  0  0  0  0  0  0
    1.3289   -3.1401    0.0000 C   0  0  0  0  0  0  0  0  0
    0.6145   -3.5526    0.0000 C   0  0  0  0  0  0  0  0  0
   -0.1000   -3.1401    0.0000 C   0  0  0  0  0  0  0  0  0
   -0.1000   -2.3151    0.0000 C   0  0  0  0  0  0  0  0  0
    2.0434   -3.5526    0.0000 C   0  0  0  0  0  0  0  0  0
  1  2  2  0  0  0  0
  1  3  2  0  0  0  0
  1  4  1  0  0  0  0
  1 10  1  0  0  0  0
  4  5  4  0  0  0  0
  4  9  4  0  0  0  0
  5  6  4  0  0  0  0
  6  7  4  0  0  0  0
  7  8  4  0  0  0  0
  8  9  4  0  0  0  0
 10 11  4  0  0  0  0
 10 14  4  0  0  0  0
 11 12  4  0  0  0  0
 11 18  4  0  0  0  0
 12 13  4  0  0  0  0
 12 15  4  0  0  0  0
 13 14  4  0  0  0  0
 15 16  4  0  0  0  0
 16 17  4  0  0  0  0
 17 18  4  0  0  0  0
 18 19  1  0  0  0  0
 19 20  1  0  0  0  0
 20 21  1  0  0  0  0
 21 22  1  0  0  0  0
 21 26  1  0  0  0  0
 22 23  1  0  0  0  0
 23 24  1  0  0  0  0
 23 27  1  0  0  0  0
 24 25  1  0  0  0  0
 25 26  1  0  0  0  0
M  STY  1   1 DAT
M  SAL   1  1  13
M  SDT   1 MRV_IMPLICIT_H                                        
M  SDD   1     0.0000    0.0000    DR    ALL  0       0  
M  SED   1 IMPL_H1
M  END
>  <Name_Molregno>
592322

>  <5-HT2A>
7.34

>  <Norepinephrine transporter>
5.95

$$$$
592323
  Marvin  02231216192D 0   1.00000     0.00000     0

 25 27  0  0  0  0  0  0  0  0999 V2000
   -0.3142    0.1902    0.0000 S   0  0  0  0  0  0  0  0  0
    0.2989    0.7422    0.0000 O   0  0  0  0  0  0  0  0  0
   -0.9273   -0.3619    0.0000 O   0  0  0  0  0  0  0  0  0
    0.2379   -0.4229    0.0000 C   0  0  0  0  0  0  0  0  0
    1.0448   -0.2514    0.0000 C   0  0  0  0  0  0  0  0  0
    1.5969   -0.8645    0.0000 C   0  0  0  0  0  0  0  0  0
    1.3419   -1.6491    0.0000 C   0  0  0  0  0  0  0  0  0
    0.5350   -1.8207    0.0000 C   0  0  0  0  0  0  0  0  0
   -0.0171   -1.2076    0.0000 C   0  0  0  0  0  0  0  0  0
   -0.8662    0.8032    0.0000 C   0  0  0  0  0  0  0  0  0
   -0.6947    1.6102    0.0000 C   0  0  0  0  0  0  0  0  0
   -1.4091    2.0227    0.0000 C   0  0  0  0  0  0  0  0  0
   -2.0222    1.4707    0.0000 N   0  0  0  0  0  0  0  0  0
   -1.6867    0.7170    0.0000 C   0  0  0  0  0  0  0  0  0
   -1.4091    2.8477    0.0000 C   0  0  0  0  0  0  0  0  0
   -0.6947    3.2602    0.0000 C   0  0  0  0  0  0  0  0  0
    0.0198    2.8477    0.0000 C   0  0  0  0  0  0  0  0  0
    0.0198    2.0227    0.0000 C   0  0  0  0  0  0  0  0  0
    0.7343    1.6102    0.0000 C   0  0  0  0  0  0  0  0  0
    1.4487    2.0227    0.0000 C   0  0  0  0  0  0  0  0  0
    2.1632    1.6102    0.0000 C   0  0  0  0  0  0  0  0  0
    2.8777    2.0227    0.0000 N   0  0  0  0  0  0  0  0  0
    3.5922    1.6102    0.0000 C   0  0  0  0  0  0  0  0  0
    4.3066    2.0227    0.0000 C   0  0  0  0  0  0  0  0  0
    2.8777    2.8477    0.0000 C   0  0  0  0  0  0  0  0  0
  1  2  2  0  0  0  0
  1  3  2  0  0  0  0
  1  4  1  0  0  0  0
  1 10  1  0  0  0  0
  4  5  4  0  0  0  0
  4  9  4  0  0  0  0
  5  6  4  0  0  0  0
  6  7  4  0  0  0  0
  7  8  4  0  0  0  0
  8  9  4  0  0  0  0
 10 11  4  0  0  0  0
 10 14  4  0  0  0  0
 11 12  4  0  0  0  0
 11 18  4  0  0  0  0
 12 13  4  0  0  0  0
 12 15  4  0  0  0  0
 13 14  4  0  0  0  0
 15 16  4  0  0  0  0
 16 17  4  0  0  0  0
 17 18  4  0  0  0  0
 18 19  1  0  0  0  0
 19 20  1  0  0  0  0
 20 21  1  0  0  0  0
 21 22  1  0  0  0  0
 22 23  1  0  0  0  0
 22 25  1  0  0  0  0
 23 24  1  0  0  0  0
M  STY  1   1 DAT
M  SAL   1  1  13
M  SDT   1 MRV_IMPLICIT_H                                        
M  SDD   1     0.0000    0.0000    DR    ALL  0       0  
M  SED   1 IMPL_H1
M  END
>  <Name_Molregno>
592323

>  <5-HT2A>
6.15

>  <Norepinephrine transporter>
7.68

$$$$
592337
  Marvin  02231216192D 0   1.00000     0.00000     0

 25 27  0  0  0  0  0  0  0  0999 V2000
   -0.2946   -1.7177    0.0000 S   0  0  0  0  0  0  0  0  0
    0.3185   -1.1657    0.0000 O   0  0  0  0  0  0  0  0  0
   -0.9077   -2.2697    0.0000 O   0  0  0  0  0  0  0  0  0
    0.2575   -2.3308    0.0000 C   0  0  0  0  0  0  0  0  0
    1.0644   -2.1593    0.0000 C   0  0  0  0  0  0  0  0  0
    1.6165   -2.7724    0.0000 C   0  0  0  0  0  0  0  0  0
    1.3615   -3.5570    0.0000 C   0  0  0  0  0  0  0  0  0
    0.5546   -3.7285    0.0000 C   0  0  0  0  0  0  0  0  0
    0.0025   -3.1154    0.0000 C   0  0  0  0  0  0  0  0  0
   -0.8466   -1.1046    0.0000 C   0  0  0  0  0  0  0  0  0
   -0.6751   -0.2976    0.0000 C   0  0  0  0  0  0  0  0  0
   -1.3895    0.1149    0.0000 C   0  0  0  0  0  0  0  0  0
   -2.0026   -0.4372    0.0000 N   0  0  0  0  0  0  0  0  0
   -1.6671   -1.1908    0.0000 C   0  0  0  0  0  0  0  0  0
   -1.3895    0.9399    0.0000 C   0  0  0  0  0  0  0  0  0
   -0.6751    1.3524    0.0000 C   0  0  0  0  0  0  0  0  0
    0.0394    0.9399    0.0000 C   0  0  0  0  0  0  0  0  0
    0.0394    0.1149    0.0000 C   0  0  0  0  0  0  0  0  0
    0.7539   -0.2976    0.0000 C   0  0  0  0  0  0  0  0  0
    1.4683    0.1149    0.0000 C   0  0  0  0  0  0  0  0  0
    2.1828   -0.2976    0.0000 C   0  0  0  0  0  0  0  0  0
    2.8973    0.1149    0.0000 N   0  0  0  0  0  0  0  0  0
    3.6118   -0.2976    0.0000 C   0  0  0  0  0  0  0  0  0
    4.3262    0.1149    0.0000 C   0  0  0  0  0  0  0  0  0
    3.6118   -1.1226    0.0000 C   0  0  0  0  0  0  0  0  0
  1  2  2  0  0  0  0
  1  3  2  0  0  0  0
  1  4  1  0  0  0  0
  1 10  1  0  0  0  0
  4  5  4  0  0  0  0
  4  9  4  0  0  0  0
  5  6  4  0  0  0  0
  6  7  4  0  0  0  0
  7  8  4  0  0  0  0
  8  9  4  0  0  0  0
 10 11  4  0  0  0  0
 10 14  4  0  0  0  0
 11 12  4  0  0  0  0
 11 18  4  0  0  0  0
 12 13  4  0  0  0  0
 12 15  4  0  0  0  0
 13 14  4  0  0  0  0
 15 16  4  0  0  0  0
 16 17  4  0  0  0  0
 17 18  4  0  0  0  0
 18 19  1  0  0  0  0
 19 20  1  0  0  0  0
 20 21  1  0  0  0  0
 21 22  1  0  0  0  0
 22 23  1  0  0  0  0
 23 24  1  0  0  0  0
 23 25  1  0  0  0  0
M  STY  1   1 DAT
M  SAL   1  1  13
M  SDT   1 MRV_IMPLICIT_H                                        
M  SDD   1     0.0000    0.0000    DR    ALL  0       0  
M  SED   1 IMPL_H1
M  END
>  <Name_Molregno>
592337

>  <5-HT2A>
6.21

>  <Norepinephrine transporter>
7.89

$$$$
592338
  Marvin  02231216192D 0   1.00000     0.00000     0

 27 30  0  0  0  0  0  0  0  0999 V2000
    0.4558    0.4500    0.0000 S   0  0  0  0  0  0  0  0  0
    1.2404    0.1951    0.0000 O   0  0  0  0  0  0  0  0  0
   -0.3289    0.7050    0.0000 O   0  0  0  0  0  0  0  0  0
    0.2008   -0.3346    0.0000 C   0  0  0  0  0  0  0  0  0
    0.7529   -0.9477    0.0000 C   0  0  0  0  0  0  0  0  0
    0.4979   -1.7323    0.0000 C   0  0  0  0  0  0  0  0  0
   -0.3091   -1.9038    0.0000 C   0  0  0  0  0  0  0  0  0
   -0.8611   -1.2907    0.0000 C   0  0  0  0  0  0  0  0  0
   -0.6061   -0.5061    0.0000 C   0  0  0  0  0  0  0  0  0
    0.7107    1.2347    0.0000 C   0  0  0  0  0  0  0  0  0
    1.4953    1.4896    0.0000 C   0  0  0  0  0  0  0  0  0
    1.4953    2.3146    0.0000 C   0  0  0  0  0  0  0  0  0
    0.7107    2.5695    0.0000 N   0  0  0  0  0  0  0  0  0
    0.2258    1.9021    0.0000 C   0  0  0  0  0  0  0  0  0
    2.2098    2.7271    0.0000 C   0  0  0  0  0  0  0  0  0
    2.9243    2.3146    0.0000 C   0  0  0  0  0  0  0  0  0
    2.9243    1.4896    0.0000 C   0  0  0  0  0  0  0  0  0
    2.2098    1.0771    0.0000 C   0  0  0  0  0  0  0  0  0
    2.2098    0.2521    0.0000 C   0  0  0  0  0  0  0  0  0
    1.4953   -0.1604    0.0000 C   0  0  0  0  0  0  0  0  0
    1.4953   -0.9854    0.0000 C   0  0  0  0  0  0  0  0  0
    2.2098   -1.3979    0.0000 N   0  0  0  0  0  0  0  0  0
    2.9243   -0.9854    0.0000 C   0  0  0  0  0  0  0  0  0
    3.6387   -1.3979    0.0000 C   0  0  0  0  0  0  0  0  0
    3.6387   -2.2229    0.0000 C   0  0  0  0  0  0  0  0  0
    2.9243   -2.6354    0.0000 C   0  0  0  0  0  0  0  0  0
    2.2098   -2.2229    0.0000 C   0  0  0  0  0  0  0  0  0
  1  2  2  0  0  0  0
  1  3  2  0  0  0  0
  1  4  1  0  0  0  0
  1 10  1  0  0  0  0
  4  5  4  0  0  0  0
  4  9  4  0  0  0  0
  5  6  4  0  0  0  0
  6  7  4  0  0  0  0
  7  8  4  0  0  0  0
  8  9  4  0  0  0  0
 10 11  4  0  0  0  0
 10 14  4  0  0  0  0
 11 12  4  0  0  0  0
 11 18  4  0  0  0  0
 12 13  4  0  0  0  0
 12 15  4  0  0  0  0
 13 14  4  0  0  0  0
 15 16  4  0  0  0  0
 16 17  4  0  0  0  0
 17 18  4  0  0  0  0
 18 19  1  0  0  0  0
 19 20  1  0  0  0  0
 20 21  1  0  0  0  0
 21 22  1  0  0  0  0
 22 23  1  0  0  0  0
 22 27  1  0  0  0  0
 23 24  1  0  0  0  0
 24 25  1  0  0  0  0
 25 26  1  0  0  0  0
 26 27  1  0  0  0  0
M  STY  1   1 DAT
M  SAL   1  1  13
M  SDT   1 MRV_IMPLICIT_H                                        
M  SDD   1     0.0000    0.0000    DR    ALL  0       0  
M  SED   1 IMPL_H1
M  END
>  <Name_Molregno>
592338

>  <5-HT2A>
6.07

>  <Norepinephrine transporter>
5.99

$$$$
593611
  Marvin  02231216192D 0   1.00000     0.00000     0

 23 25  0  0  1  0  0  0  0  0999 V2000
    2.4953   -1.7278    0.0000 O   0  0  0  0  0  0  0  0  0
    2.4953   -2.5528    0.0000 C   0  0  0  0  0  0  0  0  0
    1.7808   -2.9653    0.0000 C   0  0  0  0  0  0  0  0  0
    1.0664   -2.5528    0.0000 N   0  0  0  0  0  0  0  0  0
    1.0664   -1.7278    0.0000 C   0  0  0  0  0  0  0  0  0
    1.7808   -1.3153    0.0000 C   0  0  0  0  0  0  0  0  0
    1.7808   -0.4903    0.0000 C   0  0  0  0  0  0  0  0  0
    2.4953   -0.0778    0.0000 O   0  0  0  0  0  0  0  0  0
    2.4953    0.7472    0.0000 C   0  0  0  0  0  0  0  0  0
    1.7808    1.1597    0.0000 C   0  0  0  0  0  0  0  0  0
    1.7808    1.9847    0.0000 C   0  0  0  0  0  0  0  0  0
    2.4953    2.3972    0.0000 C   0  0  0  0  0  0  0  0  0
    3.2098    1.9847    0.0000 C   0  0  0  0  0  0  0  0  0
    3.2098    1.1597    0.0000 C   0  0  0  0  0  0  0  0  0
    3.9242    0.7472    0.0000 O   0  0  0  0  0  0  0  0  0
    3.9242   -0.0778    0.0000 C   0  0  0  0  0  0  0  0  0
    4.6387   -0.4903    0.0000 C   0  0  0  0  0  0  0  0  0
    1.0664   -0.0778    0.0000 C   0  0  0  0  0  0  0  0  0
    0.3519   -0.4903    0.0000 C   0  0  0  0  0  0  0  0  0
   -0.3626   -0.0778    0.0000 C   0  0  0  0  0  0  0  0  0
   -0.3626    0.7472    0.0000 C   0  0  0  0  0  0  0  0  0
    0.3519    1.1597    0.0000 C   0  0  0  0  0  0  0  0  0
    1.0664    0.7472    0.0000 C   0  0  0  0  0  0  0  0  0
  1  2  1  0  0  0  0
  1  6  1  0  0  0  0
  2  3  1  0  0  0  0
  3  4  1  0  0  0  0
  4  5  1  0  0  0  0
  5  6  1  0  0  0  0
  6  7  1  0  0  0  0
  7  8  1  0  0  0  0
  7 18  1  0  0  0  0
  8  9  1  0  0  0  0
  9 10  4  0  0  0  0
  9 14  4  0  0  0  0
 10 11  4  0  0  0  0
 11 12  4  0  0  0  0
 12 13  4  0  0  0  0
 13 14  4  0  0  0  0
 14 15  1  0  0  0  0
 15 16  1  0  0  0  0
 16 17  1  0  0  0  0
 18 19  4  0  0  0  0
 18 23  4  0  0  0  0
 19 20  4  0  0  0  0
 20 21  4  0  0  0  0
 21 22  4  0  0  0  0
 22 23  4  0  0  0  0
M  END
>  <Name_Molregno>
593611

>  <5-HT1A>
5

>  <5-HT1B>
5

>  <5-HT1D>
5

>  <5-HT2A>
5

>  <5-HT2C>
6.34

>  <Alpha-1A>
5

>  <Alpha-2A>
5

>  <DOPAMINE D2>
5

>  <DOPAMINE D3>
5

>  <Dopamine transporter>
5.12

>  <Norepinephrine transporter>
8.27

>  <Serotonin transporter>
6.28

$$$$
594448
  Marvin  02231216192D 0   1.00000     0.00000     0

 24 27  0  0  1  0  0  0  0  0999 V2000
   -0.1249   -0.5370    0.0000 O   0  0  0  0  0  0  0  0  0
    0.6852   -0.6929    0.0000 C   0  0  0  0  0  0  0  0  0
   -0.3950    0.2426    0.0000 C   0  0  0  0  0  0  0  0  0
   -1.2051    0.3985    0.0000 C   0  0  0  0  0  0  0  0  0
   -1.4751    1.1780    0.0000 C   0  0  0  0  0  0  0  0  0
   -2.2853    1.3340    0.0000 C   0  0  0  0  0  0  0  0  0
   -2.8254    0.7103    0.0000 C   0  0  0  0  0  0  0  0  0
   -2.5553   -0.0692    0.0000 N   0  0  0  0  0  0  0  0  0
   -1.7452   -0.2251    0.0000 C   0  0  0  0  0  0  0  0  0
   -3.0954   -0.6929    0.0000 C   0  0  0  0  0  0  0  0  0
   -3.9055   -0.5370    0.0000 C   0  0  0  0  0  0  0  0  0
   -4.1756    0.2426    0.0000 C   0  0  0  0  0  0  0  0  0
   -4.9857    0.3985    0.0000 C   0  0  0  0  0  0  0  0  0
   -5.2558    1.1780    0.0000 C   0  0  0  0  0  0  0  0  0
   -6.0659    1.3340    0.0000 O   0  0  0  0  0  0  0  0  0
   -6.6060    0.7103    0.0000 C   0  0  0  0  0  0  0  0  0
   -4.7157    1.8017    0.0000 C   0  0  0  0  0  0  0  0  0
   -4.9857    2.5812    0.0000 O   0  0  0  0  0  0  0  0  0
   -3.9055    1.6458    0.0000 C   0  0  0  0  0  0  0  0  0
   -3.6355    0.8662    0.0000 C   0  0  0  0  0  0  0  0  0
   -0.9351    1.8017    0.0000 C   0  0  0  0  0  0  0  0  0
   -0.1249    1.6458    0.0000 C   0  0  0  0  0  0  0  0  0
    0.1451    0.8662    0.0000 C   0  0  0  0  0  0  0  0  0
    0.9553    0.7103    0.0000 O   0  0  0  0  0  0  0  0  0
  1  2  1  0  0  0  0
  1  3  1  0  0  0  0
  3  4  4  0  0  0  0
  3 23  4  0  0  0  0
  4  5  4  0  0  0  0
  4  9  1  0  0  0  0
  5  6  1  0  0  0  0
  5 21  4  0  0  0  0
  6  7  1  0  0  0  0
  7  8  1  0  0  0  0
  7 20  1  0  0  0  0
  8  9  1  0  0  0  0
  8 10  1  0  0  0  0
 10 11  1  0  0  0  0
 11 12  1  0  0  0  0
 12 13  4  0  0  0  0
 12 20  4  0  0  0  0
 13 14  4  0  0  0  0
 14 15  1  0  0  0  0
 14 17  4  0  0  0  0
 15 16  1  0  0  0  0
 17 18  1  0  0  0  0
 17 19  4  0  0  0  0
 19 20  4  0  0  0  0
 21 22  4  0  0  0  0
 22 23  4  0  0  0  0
 23 24  1  0  0  0  0
M  END
>  <Name_Molregno>
594448

>  <5-HT1A>
6.84

>  <5-HT1B>
5.16

>  <5-HT1D>
5

>  <5-HT1E>
5

>  <5-HT2A>
5

>  <5-HT3>
5

>  <5-HT5>
5

>  <5-HT6>
5

>  <5-HT7>
5

>  <Alpha-1A>
5

>  <Alpha-1B>
5

>  <Alpha-2A>
5

>  <Alpha-2B>
5.16

>  <Alpha-2C>
6.67

>  <Beta-1>
5

>  <Beta-2>
5

>  <DOPAMINE D1>
8.23

>  <DOPAMINE D2>
6.01

>  <DOPAMINE D4>
5.43

>  <DOPAMINE D5>
8.36

>  <Dopamine transporter>
5

>  <HISTAMINE H1>
5

>  <HISTAMINE H2>
5

>  <HISTAMINE H4>
5

>  <Muscarinic acetylcholine receptor M2>
5

>  <Muscarinic acetylcholine receptor M5>
5

>  <Norepinephrine transporter>
5

>  <Serotonin transporter>
5

$$$$
599017
  Marvin  02231216192D 0   1.00000     0.00000     0

 15 17  0  0  1  0  0  0  0  0999 V2000
   -1.5138   -3.5756    0.0000 O   0  0  0  0  0  0  0  0  0
   -1.1013   -2.8611    0.0000 C   0  0  0  0  0  0  0  0  0
   -0.2763   -2.8611    0.0000 N   0  0  0  0  0  0  0  0  0
    0.1362   -2.1467    0.0000 C   0  0  0  0  0  0  0  0  0
   -0.2763   -1.4322    0.0000 N   0  0  0  0  0  0  0  0  0
    0.1362   -0.7177    0.0000 C   0  0  0  0  0  0  0  0  0
    0.9612   -0.7177    0.0000 C   0  0  0  0  0  0  0  0  0
    1.3737   -1.4322    0.0000 N   0  0  0  0  0  0  0  0  0
    0.9612   -2.1467    0.0000 C   0  0  0  0  0  0  0  0  0
   -1.1013   -1.4322    0.0000 C   0  0  0  0  0  0  0  0  0
   -1.5138   -2.1467    0.0000 C   0  0  0  0  0  0  0  0  0
   -2.3388   -2.1467    0.0000 C   0  0  0  0  0  0  0  0  0
   -2.7513   -1.4322    0.0000 C   0  0  0  0  0  0  0  0  0
   -2.3388   -0.7177    0.0000 C   0  0  0  0  0  0  0  0  0
   -1.5138   -0.7177    0.0000 C   0  0  0  0  0  0  0  0  0
  1  2  2  0  0  0  0
  2  3  1  0  0  0  0
  2 11  1  0  0  0  0
  3  4  1  0  0  0  0
  4  5  1  0  0  0  0
  4  9  1  0  0  0  0
  5  6  1  0  0  0  0
  5 10  1  0  0  0  0
  6  7  1  0  0  0  0
  7  8  1  0  0  0  0
  8  9  1  0  0  0  0
 10 11  4  0  0  0  0
 10 15  4  0  0  0  0
 11 12  4  0  0  0  0
 12 13  4  0  0  0  0
 13 14  4  0  0  0  0
 14 15  4  0  0  0  0
M  END
>  <Name_Molregno>
599017

>  <5-HT2A>
5.7

>  <5-HT2C>
5.71

$$$$
599018
  Marvin  02231216192D 0   1.00000     0.00000     0

 16 18  0  0  1  0  0  0  0  0999 V2000
   -1.2630   -3.4413    0.0000 O   0  0  0  0  0  0  0  0  0
   -0.8505   -2.7268    0.0000 C   0  0  0  0  0  0  0  0  0
   -0.0255   -2.7268    0.0000 N   0  0  0  0  0  0  0  0  0
    0.3870   -2.0123    0.0000 C   0  0  0  0  0  0  0  0  0
   -0.0255   -1.2979    0.0000 N   0  0  0  0  0  0  0  0  0
    0.3870   -0.5834    0.0000 C   0  0  0  0  0  0  0  0  0
    1.2120   -0.5834    0.0000 C   0  0  0  0  0  0  0  0  0
    1.6245   -1.2979    0.0000 N   0  0  0  0  0  0  0  0  0
    1.2120   -2.0123    0.0000 C   0  0  0  0  0  0  0  0  0
   -0.8505   -1.2979    0.0000 C   0  0  0  0  0  0  0  0  0
   -1.2630   -2.0123    0.0000 C   0  0  0  0  0  0  0  0  0
   -2.0880   -2.0123    0.0000 C   0  0  0  0  0  0  0  0  0
   -2.5005   -1.2979    0.0000 C   0  0  0  0  0  0  0  0  0
   -2.0880   -0.5834    0.0000 C   0  0  0  0  0  0  0  0  0
   -1.2630   -0.5834    0.0000 C   0  0  0  0  0  0  0  0  0
   -2.5005   -2.7268    0.0000 C   0  0  0  0  0  0  0  0  0
  1  2  2  0  0  0  0
  2  3  1  0  0  0  0
  2 11  1  0  0  0  0
  3  4  1  0  0  0  0
  4  5  1  0  0  0  0
  4  9  1  0  0  0  0
  5  6  1  0  0  0  0
  5 10  1  0  0  0  0
  6  7  1  0  0  0  0
  7  8  1  0  0  0  0
  8  9  1  0  0  0  0
 10 11  4  0  0  0  0
 10 15  4  0  0  0  0
 11 12  4  0  0  0  0
 12 13  4  0  0  0  0
 12 16  1  0  0  0  0
 13 14  4  0  0  0  0
 14 15  4  0  0  0  0
M  END
>  <Name_Molregno>
599018

>  <5-HT2A>
5.99

>  <5-HT2C>
6.37

$$$$
599019
  Marvin  02231216192D 0   1.00000     0.00000     0

 16 18  0  0  1  0  0  0  0  0999 V2000
   -1.1631   -3.6165    0.0000 O   0  0  0  0  0  0  0  0  0
   -0.7506   -2.9020    0.0000 C   0  0  0  0  0  0  0  0  0
    0.0744   -2.9020    0.0000 N   0  0  0  0  0  0  0  0  0
    0.4869   -2.1876    0.0000 C   0  0  0  0  0  0  0  0  0
    0.0744   -1.4731    0.0000 N   0  0  0  0  0  0  0  0  0
    0.4869   -0.7586    0.0000 C   0  0  0  0  0  0  0  0  0
    1.3119   -0.7586    0.0000 C   0  0  0  0  0  0  0  0  0
    1.7244   -1.4731    0.0000 N   0  0  0  0  0  0  0  0  0
    1.3119   -2.1876    0.0000 C   0  0  0  0  0  0  0  0  0
   -0.7506   -1.4731    0.0000 C   0  0  0  0  0  0  0  0  0
   -1.1631   -2.1876    0.0000 C   0  0  0  0  0  0  0  0  0
   -1.9881   -2.1876    0.0000 C   0  0  0  0  0  0  0  0  0
   -2.4006   -1.4731    0.0000 C   0  0  0  0  0  0  0  0  0
   -1.9881   -0.7586    0.0000 C   0  0  0  0  0  0  0  0  0
   -1.1631   -0.7586    0.0000 C   0  0  0  0  0  0  0  0  0
   -3.2256   -1.4731    0.0000 C   0  0  0  0  0  0  0  0  0
  1  2  2  0  0  0  0
  2  3  1  0  0  0  0
  2 11  1  0  0  0  0
  3  4  1  0  0  0  0
  4  5  1  0  0  0  0
  4  9  1  0  0  0  0
  5  6  1  0  0  0  0
  5 10  1  0  0  0  0
  6  7  1  0  0  0  0
  7  8  1  0  0  0  0
  8  9  1  0  0  0  0
 10 11  4  0  0  0  0
 10 15  4  0  0  0  0
 11 12  4  0  0  0  0
 12 13  4  0  0  0  0
 13 14  4  0  0  0  0
 13 16  1  0  0  0  0
 14 15  4  0  0  0  0
M  END
>  <Name_Molregno>
599019

>  <5-HT2A>
5.91

>  <5-HT2C>
6

$$$$
599020
  Marvin  02231216192D 0   1.00000     0.00000     0

 16 18  0  0  1  0  0  0  0  0999 V2000
   -1.2816   -3.7872    0.0000 O   0  0  0  0  0  0  0  0  0
   -0.8691   -3.0727    0.0000 C   0  0  0  0  0  0  0  0  0
   -0.0441   -3.0727    0.0000 N   0  0  0  0  0  0  0  0  0
    0.3684   -2.3583    0.0000 C   0  0  0  0  0  0  0  0  0
   -0.0441   -1.6438    0.0000 N   0  0  0  0  0  0  0  0  0
    0.3684   -0.9293    0.0000 C   0  0  0  0  0  0  0  0  0
    1.1934   -0.9293    0.0000 C   0  0  0  0  0  0  0  0  0
    1.6059   -1.6438    0.0000 N   0  0  0  0  0  0  0  0  0
    1.1934   -2.3583    0.0000 C   0  0  0  0  0  0  0  0  0
   -0.8691   -1.6438    0.0000 C   0  0  0  0  0  0  0  0  0
   -1.2816   -2.3583    0.0000 C   0  0  0  0  0  0  0  0  0
   -2.1066   -2.3583    0.0000 C   0  0  0  0  0  0  0  0  0
   -2.5191   -1.6438    0.0000 C   0  0  0  0  0  0  0  0  0
   -2.1066   -0.9293    0.0000 C   0  0  0  0  0  0  0  0  0
   -1.2816   -0.9293    0.0000 C   0  0  0  0  0  0  0  0  0
   -2.5191   -0.2149    0.0000 C   0  0  0  0  0  0  0  0  0
  1  2  2  0  0  0  0
  2  3  1  0  0  0  0
  2 11  1  0  0  0  0
  3  4  1  0  0  0  0
  4  5  1  0  0  0  0
  4  9  1  0  0  0  0
  5  6  1  0  0  0  0
  5 10  1  0  0  0  0
  6  7  1  0  0  0  0
  7  8  1  0  0  0  0
  8  9  1  0  0  0  0
 10 11  4  0  0  0  0
 10 15  4  0  0  0  0
 11 12  4  0  0  0  0
 12 13  4  0  0  0  0
 13 14  4  0  0  0  0
 14 15  4  0  0  0  0
 14 16  1  0  0  0  0
M  END
>  <Name_Molregno>
599020

>  <5-HT2A>
6.22

>  <5-HT2C>
6.32

$$$$
599021
  Marvin  02231216192D 0   1.00000     0.00000     0

 16 18  0  0  1  0  0  0  0  0999 V2000
   -1.4874   -3.7858    0.0000 O   0  0  0  0  0  0  0  0  0
   -1.0749   -3.0714    0.0000 C   0  0  0  0  0  0  0  0  0
   -0.2499   -3.0714    0.0000 N   0  0  0  0  0  0  0  0  0
    0.1626   -2.3569    0.0000 C   0  0  0  0  0  0  0  0  0
   -0.2499   -1.6424    0.0000 N   0  0  0  0  0  0  0  0  0
   -1.0749   -1.6424    0.0000 C   0  0  0  0  0  0  0  0  0
   -1.4874   -2.3569    0.0000 C   0  0  0  0  0  0  0  0  0
   -2.3124   -2.3569    0.0000 C   0  0  0  0  0  0  0  0  0
   -2.7249   -1.6424    0.0000 C   0  0  0  0  0  0  0  0  0
   -2.3124   -0.9279    0.0000 C   0  0  0  0  0  0  0  0  0
   -1.4874   -0.9279    0.0000 C   0  0  0  0  0  0  0  0  0
   -1.0749   -0.2135    0.0000 C   0  0  0  0  0  0  0  0  0
    0.1626   -0.9279    0.0000 C   0  0  0  0  0  0  0  0  0
    0.9876   -0.9279    0.0000 C   0  0  0  0  0  0  0  0  0
    1.4001   -1.6424    0.0000 N   0  0  0  0  0  0  0  0  0
    0.9876   -2.3569    0.0000 C   0  0  0  0  0  0  0  0  0
  1  2  2  0  0  0  0
  2  3  1  0  0  0  0
  2  7  1  0  0  0  0
  3  4  1  0  0  0  0
  4  5  1  0  0  0  0
  4 16  1  0  0  0  0
  5  6  1  0  0  0  0
  5 13  1  0  0  0  0
  6  7  4  0  0  0  0
  6 11  4  0  0  0  0
  7  8  4  0  0  0  0
  8  9  4  0  0  0  0
  9 10  4  0  0  0  0
 10 11  4  0  0  0  0
 11 12  1  0  0  0  0
 13 14  1  0  0  0  0
 14 15  1  0  0  0  0
 15 16  1  0  0  0  0
M  END
>  <Name_Molregno>
599021

>  <5-HT2A>
5

>  <5-HT2C>
5.21

$$$$
599022
  Marvin  02231216192D 0   1.00000     0.00000     0

 16 18  0  0  1  0  0  0  0  0999 V2000
    3.9700   -0.9883    0.0000 Cl  0  0  0  0  0  0  0  0  0
    3.5575   -0.2738    0.0000 C   0  0  0  0  0  0  0  0  0
    2.7325   -0.2738    0.0000 C   0  0  0  0  0  0  0  0  0
    2.3200    0.4406    0.0000 C   0  0  0  0  0  0  0  0  0
    1.4950    0.4406    0.0000 N   0  0  0  0  0  0  0  0  0
    1.0825   -0.2738    0.0000 C   0  0  0  0  0  0  0  0  0
    1.4950   -0.9883    0.0000 N   0  0  0  0  0  0  0  0  0
    2.3200   -0.9883    0.0000 C   0  0  0  0  0  0  0  0  0
    2.7325   -1.7028    0.0000 O   0  0  0  0  0  0  0  0  0
    0.2575   -0.2738    0.0000 C   0  0  0  0  0  0  0  0  0
   -0.1550    0.4406    0.0000 N   0  0  0  0  0  0  0  0  0
    0.2575    1.1551    0.0000 C   0  0  0  0  0  0  0  0  0
    1.0825    1.1551    0.0000 C   0  0  0  0  0  0  0  0  0
    2.7325    1.1551    0.0000 C   0  0  0  0  0  0  0  0  0
    3.5575    1.1551    0.0000 C   0  0  0  0  0  0  0  0  0
    3.9700    0.4406    0.0000 C   0  0  0  0  0  0  0  0  0
  1  2  1  0  0  0  0
  2  3  4  0  0  0  0
  2 16  4  0  0  0  0
  3  4  4  0  0  0  0
  3  8  1  0  0  0  0
  4  5  1  0  0  0  0
  4 14  4  0  0  0  0
  5  6  1  0  0  0  0
  5 13  1  0  0  0  0
  6  7  1  0  0  0  0
  6 10  1  0  0  0  0
  7  8  1  0  0  0  0
  8  9  2  0  0  0  0
 10 11  1  0  0  0  0
 11 12  1  0  0  0  0
 12 13  1  0  0  0  0
 14 15  4  0  0  0  0
 15 16  4  0  0  0  0
M  END
>  <Name_Molregno>
599022

>  <5-HT2A>
6.48

>  <5-HT2C>
6.65

$$$$
599081
  Marvin  02231216192D 0   1.00000     0.00000     0

 16 18  0  0  1  0  0  0  0  0999 V2000
    5.2432    0.0189    0.0000 Cl  0  0  0  0  0  0  0  0  0
    4.4182    0.0189    0.0000 C   0  0  0  0  0  0  0  0  0
    4.0057   -0.6955    0.0000 C   0  0  0  0  0  0  0  0  0
    3.1807   -0.6955    0.0000 C   0  0  0  0  0  0  0  0  0
    2.7682    0.0189    0.0000 C   0  0  0  0  0  0  0  0  0
    1.9432    0.0189    0.0000 N   0  0  0  0  0  0  0  0  0
    1.5307   -0.6955    0.0000 C   0  0  0  0  0  0  0  0  0
    1.9432   -1.4100    0.0000 N   0  0  0  0  0  0  0  0  0
    2.7682   -1.4100    0.0000 C   0  0  0  0  0  0  0  0  0
    3.1807   -2.1245    0.0000 O   0  0  0  0  0  0  0  0  0
    0.7057   -0.6955    0.0000 C   0  0  0  0  0  0  0  0  0
    0.2932    0.0189    0.0000 N   0  0  0  0  0  0  0  0  0
    0.7057    0.7334    0.0000 C   0  0  0  0  0  0  0  0  0
    1.5307    0.7334    0.0000 C   0  0  0  0  0  0  0  0  0
    3.1807    0.7334    0.0000 C   0  0  0  0  0  0  0  0  0
    4.0057    0.7334    0.0000 C   0  0  0  0  0  0  0  0  0
  1  2  1  0  0  0  0
  2  3  4  0  0  0  0
  2 16  4  0  0  0  0
  3  4  4  0  0  0  0
  4  5  4  0  0  0  0
  4  9  1  0  0  0  0
  5  6  1  0  0  0  0
  5 15  4  0  0  0  0
  6  7  1  0  0  0  0
  6 14  1  0  0  0  0
  7  8  1  0  0  0  0
  7 11  1  0  0  0  0
  8  9  1  0  0  0  0
  9 10  2  0  0  0  0
 11 12  1  0  0  0  0
 12 13  1  0  0  0  0
 13 14  1  0  0  0  0
 15 16  4  0  0  0  0
M  END
>  <Name_Molregno>
599081

>  <5-HT2A>
6.4

>  <5-HT2C>
6.12

$$$$
599082
  Marvin  02231216192D 0   1.00000     0.00000     0

 19 21  0  0  1  0  0  0  0  0999 V2000
    3.8940   -0.0324    0.0000 F   0  0  0  0  0  0  0  0  0
    3.4815    0.6821    0.0000 C   0  0  0  0  0  0  0  0  0
    4.1960    1.0946    0.0000 F   0  0  0  0  0  0  0  0  0
    2.7670    0.2696    0.0000 F   0  0  0  0  0  0  0  0  0
    3.0690    1.3965    0.0000 C   0  0  0  0  0  0  0  0  0
    2.2440    1.3965    0.0000 C   0  0  0  0  0  0  0  0  0
    1.8315    2.1110    0.0000 C   0  0  0  0  0  0  0  0  0
    1.0065    2.1110    0.0000 N   0  0  0  0  0  0  0  0  0
    0.5940    1.3965    0.0000 C   0  0  0  0  0  0  0  0  0
    1.0065    0.6821    0.0000 N   0  0  0  0  0  0  0  0  0
    1.8315    0.6821    0.0000 C   0  0  0  0  0  0  0  0  0
    2.2440   -0.0324    0.0000 O   0  0  0  0  0  0  0  0  0
   -0.2310    1.3965    0.0000 C   0  0  0  0  0  0  0  0  0
   -0.6435    2.1110    0.0000 N   0  0  0  0  0  0  0  0  0
   -0.2310    2.8255    0.0000 C   0  0  0  0  0  0  0  0  0
    0.5940    2.8255    0.0000 C   0  0  0  0  0  0  0  0  0
    2.2440    2.8255    0.0000 C   0  0  0  0  0  0  0  0  0
    3.0690    2.8255    0.0000 C   0  0  0  0  0  0  0  0  0
    3.4815    2.1110    0.0000 C   0  0  0  0  0  0  0  0  0
  1  2  1  0  0  0  0
  2  3  1  0  0  0  0
  2  4  1  0  0  0  0
  2  5  1  0  0  0  0
  5  6  4  0  0  0  0
  5 19  4  0  0  0  0
  6  7  4  0  0  0  0
  6 11  1  0  0  0  0
  7  8  1  0  0  0  0
  7 17  4  0  0  0  0
  8  9  1  0  0  0  0
  8 16  1  0  0  0  0
  9 10  1  0  0  0  0
  9 13  1  0  0  0  0
 10 11  1  0  0  0  0
 11 12  2  0  0  0  0
 13 14  1  0  0  0  0
 14 15  1  0  0  0  0
 15 16  1  0  0  0  0
 17 18  4  0  0  0  0
 18 19  4  0  0  0  0
M  END
>  <Name_Molregno>
599082

>  <5-HT2A>
6.74

>  <5-HT2C>
6.82

$$$$
599083
  Marvin  02231216192D 0   1.00000     0.00000     0

 16 18  0  0  1  0  0  0  0  0999 V2000
   -0.8667   -3.2059    0.0000 Cl  0  0  0  0  0  0  0  0  0
   -1.2792   -2.4914    0.0000 C   0  0  0  0  0  0  0  0  0
   -0.8667   -1.7770    0.0000 C   0  0  0  0  0  0  0  0  0
   -0.0417   -1.7770    0.0000 N   0  0  0  0  0  0  0  0  0
    0.3708   -1.0625    0.0000 C   0  0  0  0  0  0  0  0  0
   -0.0417   -0.3480    0.0000 N   0  0  0  0  0  0  0  0  0
   -0.8667   -0.3480    0.0000 C   0  0  0  0  0  0  0  0  0
   -1.2792    0.3664    0.0000 O   0  0  0  0  0  0  0  0  0
   -1.2792   -1.0625    0.0000 C   0  0  0  0  0  0  0  0  0
   -2.1042   -1.0625    0.0000 C   0  0  0  0  0  0  0  0  0
   -2.5167   -1.7770    0.0000 C   0  0  0  0  0  0  0  0  0
   -2.1042   -2.4914    0.0000 C   0  0  0  0  0  0  0  0  0
    1.1958   -1.0625    0.0000 C   0  0  0  0  0  0  0  0  0
    1.6083   -1.7770    0.0000 N   0  0  0  0  0  0  0  0  0
    1.1958   -2.4914    0.0000 C   0  0  0  0  0  0  0  0  0
    0.3708   -2.4914    0.0000 C   0  0  0  0  0  0  0  0  0
  1  2  1  0  0  0  0
  2  3  4  0  0  0  0
  2 12  4  0  0  0  0
  3  4  1  0  0  0  0
  3  9  4  0  0  0  0
  4  5  1  0  0  0  0
  4 16  1  0  0  0  0
  5  6  1  0  0  0  0
  5 13  1  0  0  0  0
  6  7  1  0  0  0  0
  7  8  2  0  0  0  0
  7  9  1  0  0  0  0
  9 10  4  0  0  0  0
 10 11  4  0  0  0  0
 11 12  4  0  0  0  0
 13 14  1  0  0  0  0
 14 15  1  0  0  0  0
 15 16  1  0  0  0  0
M  END
>  <Name_Molregno>
599083

>  <5-HT2A>
5

>  <5-HT2C>
5

$$$$
599084
  Marvin  02231216192D 0   1.00000     0.00000     0

 16 18  0  0  1  0  0  0  0  0999 V2000
   -0.0783   -3.6520    0.0000 O   0  0  0  0  0  0  0  0  0
    0.3535   -2.9491    0.0000 C   0  0  0  0  0  0  0  0  0
    1.1782   -2.9717    0.0000 N   0  0  0  0  0  0  0  0  0
    1.6101   -2.2687    0.0000 C   0  0  0  0  0  0  0  0  0
    1.2173   -1.5432    0.0000 N   0  0  0  0  0  0  0  0  0
    1.5396   -0.7838    0.0000 C   0  0  0  0  0  0  0  0  0
    2.3343   -0.5623    0.0000 C   0  0  0  0  0  0  0  0  0
    3.0030   -1.0455    0.0000 N   0  0  0  0  0  0  0  0  0
    3.0421   -1.8695    0.0000 C   0  0  0  0  0  0  0  0  0
    2.4222   -2.4139    0.0000 C   0  0  0  0  0  0  0  0  0
    0.3926   -1.5207    0.0000 C   0  0  0  0  0  0  0  0  0
   -0.0393   -2.2236    0.0000 C   0  0  0  0  0  0  0  0  0
   -0.8640   -2.2011    0.0000 C   0  0  0  0  0  0  0  0  0
   -1.2568   -1.4756    0.0000 C   0  0  0  0  0  0  0  0  0
   -0.8249   -0.7727    0.0000 C   0  0  0  0  0  0  0  0  0
   -0.0002   -0.7952    0.0000 C   0  0  0  0  0  0  0  0  0
  1  2  2  0  0  0  0
  2  3  1  0  0  0  0
  2 12  1  0  0  0  0
  3  4  1  0  0  0  0
  4  5  1  0  0  0  0
  4 10  1  0  0  0  0
  5  6  1  0  0  0  0
  5 11  1  0  0  0  0
  6  7  1  0  0  0  0
  7  8  1  0  0  0  0
  8  9  1  0  0  0  0
  9 10  1  0  0  0  0
 11 12  4  0  0  0  0
 11 16  4  0  0  0  0
 12 13  4  0  0  0  0
 13 14  4  0  0  0  0
 14 15  4  0  0  0  0
 15 16  4  0  0  0  0
M  END
>  <Name_Molregno>
599084

>  <5-HT2A>
6.57

>  <5-HT2C>
7.31

$$$$
599085
  Marvin  02231216192D 0   1.00000     0.00000     0

 17 19  0  0  1  0  0  0  0  0999 V2000
   -0.0587   -3.5157    0.0000 O   0  0  0  0  0  0  0  0  0
    0.3732   -2.8128    0.0000 C   0  0  0  0  0  0  0  0  0
    1.1979   -2.8353    0.0000 N   0  0  0  0  0  0  0  0  0
    1.6297   -2.1324    0.0000 C   0  0  0  0  0  0  0  0  0
    1.2369   -1.4069    0.0000 N   0  0  0  0  0  0  0  0  0
    1.5592   -0.6475    0.0000 C   0  0  0  0  0  0  0  0  0
    2.3539   -0.4259    0.0000 C   0  0  0  0  0  0  0  0  0
    3.0226   -0.9091    0.0000 N   0  0  0  0  0  0  0  0  0
    3.0617   -1.7332    0.0000 C   0  0  0  0  0  0  0  0  0
    2.4418   -2.2776    0.0000 C   0  0  0  0  0  0  0  0  0
    0.4122   -1.3844    0.0000 C   0  0  0  0  0  0  0  0  0
   -0.0197   -2.0873    0.0000 C   0  0  0  0  0  0  0  0  0
   -0.8443   -2.0647    0.0000 C   0  0  0  0  0  0  0  0  0
   -1.2372   -1.3393    0.0000 C   0  0  0  0  0  0  0  0  0
   -0.8053   -0.6363    0.0000 C   0  0  0  0  0  0  0  0  0
    0.0194   -0.6589    0.0000 C   0  0  0  0  0  0  0  0  0
   -1.2762   -2.7677    0.0000 C   0  0  0  0  0  0  0  0  0
  1  2  2  0  0  0  0
  2  3  1  0  0  0  0
  2 12  1  0  0  0  0
  3  4  1  0  0  0  0
  4  5  1  0  0  0  0
  4 10  1  0  0  0  0
  5  6  1  0  0  0  0
  5 11  1  0  0  0  0
  6  7  1  0  0  0  0
  7  8  1  0  0  0  0
  8  9  1  0  0  0  0
  9 10  1  0  0  0  0
 11 12  4  0  0  0  0
 11 16  4  0  0  0  0
 12 13  4  0  0  0  0
 13 14  4  0  0  0  0
 13 17  1  0  0  0  0
 14 15  4  0  0  0  0
 15 16  4  0  0  0  0
M  END
>  <Name_Molregno>
599085

>  <5-HT2A>
6.85

>  <5-HT2C>
8.54

$$$$
599086
  Marvin  02231216192D 0   1.00000     0.00000     0

 17 19  0  0  1  0  0  0  0  0999 V2000
    4.0153   -2.0639    0.0000 Cl  0  0  0  0  0  0  0  0  0
    3.5834   -1.3609    0.0000 C   0  0  0  0  0  0  0  0  0
    2.7587   -1.3835    0.0000 C   0  0  0  0  0  0  0  0  0
    2.3269   -0.6806    0.0000 C   0  0  0  0  0  0  0  0  0
    1.5022   -0.7031    0.0000 N   0  0  0  0  0  0  0  0  0
    1.1093   -1.4286    0.0000 C   0  0  0  0  0  0  0  0  0
    1.5412   -2.1315    0.0000 N   0  0  0  0  0  0  0  0  0
    2.3659   -2.1090    0.0000 C   0  0  0  0  0  0  0  0  0
    2.7978   -2.8119    0.0000 O   0  0  0  0  0  0  0  0  0
    0.2972   -1.5738    0.0000 C   0  0  0  0  0  0  0  0  0
   -0.3227   -1.0294    0.0000 C   0  0  0  0  0  0  0  0  0
   -0.2835   -0.2053    0.0000 N   0  0  0  0  0  0  0  0  0
    0.3852    0.2779    0.0000 C   0  0  0  0  0  0  0  0  0
    1.1799    0.0563    0.0000 C   0  0  0  0  0  0  0  0  0
    2.7197    0.0449    0.0000 C   0  0  0  0  0  0  0  0  0
    3.5444    0.0675    0.0000 C   0  0  0  0  0  0  0  0  0
    3.9762   -0.6355    0.0000 C   0  0  0  0  0  0  0  0  0
  1  2  1  0  0  0  0
  2  3  4  0  0  0  0
  2 17  4  0  0  0  0
  3  4  4  0  0  0  0
  3  8  1  0  0  0  0
  4  5  1  0  0  0  0
  4 15  4  0  0  0  0
  5  6  1  0  0  0  0
  5 14  1  0  0  0  0
  6  7  1  0  0  0  0
  6 10  1  0  0  0  0
  7  8  1  0  0  0  0
  8  9  2  0  0  0  0
 10 11  1  0  0  0  0
 11 12  1  0  0  0  0
 12 13  1  0  0  0  0
 13 14  1  0  0  0  0
 15 16  4  0  0  0  0
 16 17  4  0  0  0  0
M  END
>  <Name_Molregno>
599086

>  <5-HT2A>
6.77

>  <5-HT2C>
8.05

$$$$
599087
  Marvin  02231216192D 0   1.00000     0.00000     0

 17 19  0  0  1  0  0  0  0  0999 V2000
   -0.0789   -3.8540    0.0000 O   0  0  0  0  0  0  0  0  0
    0.3530   -3.1511    0.0000 C   0  0  0  0  0  0  0  0  0
    1.1777   -3.1736    0.0000 N   0  0  0  0  0  0  0  0  0
    1.6095   -2.4707    0.0000 C   0  0  0  0  0  0  0  0  0
    1.2167   -1.7452    0.0000 N   0  0  0  0  0  0  0  0  0
    1.5390   -0.9858    0.0000 C   0  0  0  0  0  0  0  0  0
    2.3337   -0.7642    0.0000 C   0  0  0  0  0  0  0  0  0
    3.0024   -1.2474    0.0000 N   0  0  0  0  0  0  0  0  0
    3.0415   -2.0715    0.0000 C   0  0  0  0  0  0  0  0  0
    2.4217   -2.6159    0.0000 C   0  0  0  0  0  0  0  0  0
    0.3920   -1.7227    0.0000 C   0  0  0  0  0  0  0  0  0
   -0.0399   -2.4256    0.0000 C   0  0  0  0  0  0  0  0  0
   -0.8645   -2.4030    0.0000 C   0  0  0  0  0  0  0  0  0
   -1.2574   -1.6775    0.0000 C   0  0  0  0  0  0  0  0  0
   -0.8255   -0.9746    0.0000 C   0  0  0  0  0  0  0  0  0
   -0.0008   -0.9972    0.0000 C   0  0  0  0  0  0  0  0  0
   -1.2183   -0.2491    0.0000 C   0  0  0  0  0  0  0  0  0
  1  2  2  0  0  0  0
  2  3  1  0  0  0  0
  2 12  1  0  0  0  0
  3  4  1  0  0  0  0
  4  5  1  0  0  0  0
  4 10  1  0  0  0  0
  5  6  1  0  0  0  0
  5 11  1  0  0  0  0
  6  7  1  0  0  0  0
  7  8  1  0  0  0  0
  8  9  1  0  0  0  0
  9 10  1  0  0  0  0
 11 12  4  0  0  0  0
 11 16  4  0  0  0  0
 12 13  4  0  0  0  0
 13 14  4  0  0  0  0
 14 15  4  0  0  0  0
 15 16  4  0  0  0  0
 15 17  1  0  0  0  0
M  END
>  <Name_Molregno>
599087

>  <5-HT2A>
6.39

>  <5-HT2C>
7.7

$$$$
599157
  Marvin  02231216192D 0   1.00000     0.00000     0

 17 19  0  0  1  0  0  0  0  0999 V2000
    4.0153   -2.0639    0.0000 Cl  0  0  0  0  0  0  0  0  0
    3.5834   -1.3609    0.0000 C   0  0  0  0  0  0  0  0  0
    2.7587   -1.3835    0.0000 C   0  0  0  0  0  0  0  0  0
    2.3269   -0.6806    0.0000 C   0  0  0  0  0  0  0  0  0
    1.5022   -0.7031    0.0000 N   0  0  0  0  0  0  0  0  0
    1.1093   -1.4286    0.0000 C   0  0  0  0  0  0  0  0  0
    1.5412   -2.1315    0.0000 N   0  0  0  0  0  0  0  0  0
    2.3659   -2.1090    0.0000 C   0  0  0  0  0  0  0  0  0
    2.7978   -2.8119    0.0000 O   0  0  0  0  0  0  0  0  0
    0.2972   -1.5738    0.0000 C   0  0  0  0  0  0  0  0  0
   -0.3227   -1.0294    0.0000 N   0  0  0  0  0  0  0  0  0
   -0.2835   -0.2053    0.0000 C   0  0  0  0  0  0  0  0  0
    0.3852    0.2779    0.0000 C   0  0  0  0  0  0  0  0  0
    1.1799    0.0563    0.0000 C   0  0  0  0  0  0  0  0  0
    2.7197    0.0449    0.0000 C   0  0  0  0  0  0  0  0  0
    3.5444    0.0675    0.0000 C   0  0  0  0  0  0  0  0  0
    3.9762   -0.6355    0.0000 C   0  0  0  0  0  0  0  0  0
  1  2  1  0  0  0  0
  2  3  4  0  0  0  0
  2 17  4  0  0  0  0
  3  4  4  0  0  0  0
  3  8  1  0  0  0  0
  4  5  1  0  0  0  0
  4 15  4  0  0  0  0
  5  6  1  0  0  0  0
  5 14  1  0  0  0  0
  6  7  1  0  0  0  0
  6 10  1  0  0  0  0
  7  8  1  0  0  0  0
  8  9  2  0  0  0  0
 10 11  1  0  0  0  0
 11 12  1  0  0  0  0
 12 13  1  0  0  0  0
 13 14  1  0  0  0  0
 15 16  4  0  0  0  0
 16 17  4  0  0  0  0
M  END
>  <Name_Molregno>
599157

>  <5-HT2A>
4.87

>  <5-HT2C>
5.81

$$$$
599916
  Marvin  02231216192D 0   1.00000     0.00000     0

 22 25  0  0  1  0  0  0  0  0999 V2000
    0.0672   -0.5836    0.0000 O   0  0  0  0  0  0  0  0  0
    0.3372   -1.3631    0.0000 C   0  0  0  0  0  0  0  0  0
   -0.7429   -0.4277    0.0000 C   0  0  0  0  0  0  0  0  0
   -1.0130    0.3519    0.0000 C   0  0  0  0  0  0  0  0  0
   -1.8231    0.5078    0.0000 C   0  0  0  0  0  0  0  0  0
   -2.3632   -0.1159    0.0000 C   0  0  0  0  0  0  0  0  0
   -3.1733    0.0401    0.0000 C   0  0  0  0  0  0  0  0  0
   -3.4434    0.8196    0.0000 C   0  0  0  0  0  0  0  0  0
   -4.2535    0.9755    0.0000 C   0  0  0  0  0  0  0  0  0
   -4.7936    0.3519    0.0000 C   0  0  0  0  0  0  0  0  0
   -4.5236   -0.4277    0.0000 C   0  0  0  0  0  0  0  0  0
   -5.0637   -1.0513    0.0000 C   0  0  0  0  0  0  0  0  0
   -5.8738   -0.8954    0.0000 C   0  0  0  0  0  0  0  0  0
   -6.1438   -0.1159    0.0000 C   0  0  0  0  0  0  0  0  0
   -5.6037    0.5078    0.0000 C   0  0  0  0  0  0  0  0  0
   -3.7134   -0.5836    0.0000 C   0  0  0  0  0  0  0  0  0
   -3.4434   -1.3631    0.0000 C   0  0  0  0  0  0  0  0  0
   -3.9835   -1.9868    0.0000 N   0  0  0  0  0  0  0  0  0
   -2.9033    1.4433    0.0000 C   0  0  0  0  0  0  0  0  0
   -2.0932    1.2873    0.0000 C   0  0  0  0  0  0  0  0  0
   -2.0932   -0.8954    0.0000 C   0  0  0  0  0  0  0  0  0
   -1.2830   -1.0513    0.0000 C   0  0  0  0  0  0  0  0  0
  1  2  1  0  0  0  0
  1  3  1  0  0  0  0
  3  4  4  0  0  0  0
  3 22  4  0  0  0  0
  4  5  4  0  0  0  0
  5  6  4  0  0  0  0
  5 20  4  0  0  0  0
  6  7  4  0  0  0  0
  6 21  4  0  0  0  0
  7  8  4  0  0  0  0
  7 16  1  0  0  0  0
  8  9  1  0  0  0  0
  8 19  4  0  0  0  0
  9 10  1  0  0  0  0
 10 11  4  0  0  0  0
 10 15  4  0  0  0  0
 11 12  4  0  0  0  0
 11 16  1  0  0  0  0
 12 13  4  0  0  0  0
 13 14  4  0  0  0  0
 14 15  4  0  0  0  0
 16 17  1  0  0  0  0
 17 18  1  0  0  0  0
 19 20  4  0  0  0  0
 21 22  4  0  0  0  0
M  END
>  <Name_Molregno>
599916

>  <5-HT2A>
7.68

>  <HISTAMINE H1>
5.58

$$$$
599996
  Marvin  02231216192D 0   1.00000     0.00000     0

 24 27  0  0  0  0  0  0  0  0999 V2000
    0.6407   -0.6432    0.0000 N   0  0  0  0  0  0  0  0  0
   -0.0737   -0.2307    0.0000 C   0  0  0  0  0  0  0  0  0
   -0.0737    0.5943    0.0000 C   0  0  0  0  0  0  0  0  0
    0.6407    1.0068    0.0000 C   0  0  0  0  0  0  0  0  0
    0.6407    1.8318    0.0000 C   0  0  0  0  0  0  0  0  0
   -0.0737    2.2443    0.0000 C   0  0  0  0  0  0  0  0  0
   -0.7882    1.8318    0.0000 C   0  0  0  0  0  0  0  0  0
   -0.7882    1.0068    0.0000 C   0  0  0  0  0  0  0  0  0
   -1.5027    0.5943    0.0000 C   0  0  0  0  0  0  0  0  0
   -2.2171    1.0068    0.0000 C   0  0  0  0  0  0  0  0  0
   -2.2171    1.8318    0.0000 C   0  0  0  0  0  0  0  0  0
   -1.5027    2.2443    0.0000 C   0  0  0  0  0  0  0  0  0
    1.3552    2.2443    0.0000 C   0  0  0  0  0  0  0  0  0
    2.0697    1.8318    0.0000 C   0  0  0  0  0  0  0  0  0
    2.0697    1.0068    0.0000 C   0  0  0  0  0  0  0  0  0
    1.3552    0.5943    0.0000 C   0  0  0  0  0  0  0  0  0
    0.6407   -1.4682    0.0000 C   0  0  0  0  0  0  0  0  0
    1.3552   -1.8807    0.0000 C   0  0  0  0  0  0  0  0  0
    1.3552   -2.7057    0.0000 C   0  0  0  0  0  0  0  0  0
    2.0697   -3.1182    0.0000 C   0  0  0  0  0  0  0  0  0
    2.0697   -3.9432    0.0000 C   0  0  0  0  0  0  0  0  0
    1.3552   -4.3557    0.0000 C   0  0  0  0  0  0  0  0  0
    0.6407   -3.9432    0.0000 C   0  0  0  0  0  0  0  0  0
    0.6407   -3.1182    0.0000 C   0  0  0  0  0  0  0  0  0
  1  2  1  0  0  0  0
  1 17  1  0  0  0  0
  2  3  1  0  0  0  0
  3  4  1  0  0  0  0
  3  8  1  0  0  0  0
  4  5  4  0  0  0  0
  4 16  4  0  0  0  0
  5  6  1  0  0  0  0
  5 13  4  0  0  0  0
  6  7  1  0  0  0  0
  7  8  4  0  0  0  0
  7 12  4  0  0  0  0
  8  9  4  0  0  0  0
  9 10  4  0  0  0  0
 10 11  4  0  0  0  0
 11 12  4  0  0  0  0
 13 14  4  0  0  0  0
 14 15  4  0  0  0  0
 15 16  4  0  0  0  0
 17 18  1  0  0  0  0
 18 19  1  0  0  0  0
 19 20  4  0  0  0  0
 19 24  4  0  0  0  0
 20 21  4  0  0  0  0
 21 22  4  0  0  0  0
 22 23  4  0  0  0  0
 23 24  4  0  0  0  0
M  END
>  <Name_Molregno>
599996

>  <5-HT2A>
6.4

>  <HISTAMINE H1>
6.62

$$$$
599997
  Marvin  02231216192D 0   1.00000     0.00000     0

 25 28  0  0  0  0  0  0  0  0999 V2000
    0.3950    0.5536    0.0000 N   0  0  0  0  0  0  0  0  0
   -0.3195    0.9661    0.0000 C   0  0  0  0  0  0  0  0  0
   -1.0339    0.5537    0.0000 C   0  0  0  0  0  0  0  0  0
   -1.7484    0.9662    0.0000 C   0  0  0  0  0  0  0  0  0
   -2.4629    0.5537    0.0000 C   0  0  0  0  0  0  0  0  0
   -2.4629   -0.2713    0.0000 C   0  0  0  0  0  0  0  0  0
   -1.7484   -0.6838    0.0000 C   0  0  0  0  0  0  0  0  0
   -1.0339   -0.2713    0.0000 C   0  0  0  0  0  0  0  0  0
   -0.3195   -0.6838    0.0000 C   0  0  0  0  0  0  0  0  0
   -0.3195   -1.5088    0.0000 C   0  0  0  0  0  0  0  0  0
   -1.0339   -1.9213    0.0000 C   0  0  0  0  0  0  0  0  0
   -1.7484   -1.5088    0.0000 C   0  0  0  0  0  0  0  0  0
   -3.1773    0.9662    0.0000 C   0  0  0  0  0  0  0  0  0
   -3.1773    1.7912    0.0000 C   0  0  0  0  0  0  0  0  0
   -2.4629    2.2037    0.0000 C   0  0  0  0  0  0  0  0  0
   -1.7484    1.7912    0.0000 C   0  0  0  0  0  0  0  0  0
    1.1095    0.9661    0.0000 C   0  0  0  0  0  0  0  0  0
    1.8240    0.5536    0.0000 C   0  0  0  0  0  0  0  0  0
    2.5384    0.9661    0.0000 C   0  0  0  0  0  0  0  0  0
    3.2529    0.5536    0.0000 C   0  0  0  0  0  0  0  0  0
    3.9674    0.9661    0.0000 C   0  0  0  0  0  0  0  0  0
    4.6818    0.5536    0.0000 C   0  0  0  0  0  0  0  0  0
    4.6818   -0.2714    0.0000 C   0  0  0  0  0  0  0  0  0
    3.9674   -0.6839    0.0000 C   0  0  0  0  0  0  0  0  0
    3.2529   -0.2714    0.0000 C   0  0  0  0  0  0  0  0  0
  1  2  1  0  0  0  0
  1 17  1  0  0  0  0
  2  3  1  0  0  0  0
  3  4  1  0  0  0  0
  3  8  1  0  0  0  0
  4  5  4  0  0  0  0
  4 16  4  0  0  0  0
  5  6  1  0  0  0  0
  5 13  4  0  0  0  0
  6  7  1  0  0  0  0
  7  8  4  0  0  0  0
  7 12  4  0  0  0  0
  8  9  4  0  0  0  0
  9 10  4  0  0  0  0
 10 11  4  0  0  0  0
 11 12  4  0  0  0  0
 13 14  4  0  0  0  0
 14 15  4  0  0  0  0
 15 16  4  0  0  0  0
 17 18  1  0  0  0  0
 18 19  1  0  0  0  0
 19 20  1  0  0  0  0
 20 21  4  0  0  0  0
 20 25  4  0  0  0  0
 21 22  4  0  0  0  0
 22 23  4  0  0  0  0
 23 24  4  0  0  0  0
 24 25  4  0  0  0  0
M  END
>  <Name_Molregno>
599997

>  <5-HT2A>
6.65

>  <HISTAMINE H1>
6.14

$$$$
599998
  Marvin  02231216192D 0   1.00000     0.00000     0

 26 29  0  0  0  0  0  0  0  0999 V2000
   -0.1627    0.0003    0.0000 N   0  0  0  0  0  0  0  0  0
   -0.8772   -0.4122    0.0000 C   0  0  0  0  0  0  0  0  0
   -1.5916    0.0003    0.0000 C   0  0  0  0  0  0  0  0  0
   -1.5916    0.8253    0.0000 C   0  0  0  0  0  0  0  0  0
   -2.3061    1.2378    0.0000 C   0  0  0  0  0  0  0  0  0
   -3.0206    0.8253    0.0000 C   0  0  0  0  0  0  0  0  0
   -3.0206    0.0003    0.0000 C   0  0  0  0  0  0  0  0  0
   -2.3061   -0.4122    0.0000 C   0  0  0  0  0  0  0  0  0
   -2.3061   -1.2372    0.0000 C   0  0  0  0  0  0  0  0  0
   -3.0206   -1.6497    0.0000 C   0  0  0  0  0  0  0  0  0
   -3.7350   -1.2372    0.0000 C   0  0  0  0  0  0  0  0  0
   -3.7350   -0.4122    0.0000 C   0  0  0  0  0  0  0  0  0
   -2.3061    2.0628    0.0000 C   0  0  0  0  0  0  0  0  0
   -1.5916    2.4753    0.0000 C   0  0  0  0  0  0  0  0  0
   -0.8772    2.0628    0.0000 C   0  0  0  0  0  0  0  0  0
   -0.8772    1.2378    0.0000 C   0  0  0  0  0  0  0  0  0
    0.5518   -0.4122    0.0000 C   0  0  0  0  0  0  0  0  0
    1.2662    0.0003    0.0000 C   0  0  0  0  0  0  0  0  0
    1.9807   -0.4122    0.0000 C   0  0  0  0  0  0  0  0  0
    2.6952    0.0003    0.0000 C   0  0  0  0  0  0  0  0  0
    3.4097   -0.4122    0.0000 C   0  0  0  0  0  0  0  0  0
    4.1241    0.0003    0.0000 C   0  0  0  0  0  0  0  0  0
    4.8386   -0.4122    0.0000 C   0  0  0  0  0  0  0  0  0
    4.8386   -1.2372    0.0000 C   0  0  0  0  0  0  0  0  0
    4.1241   -1.6497    0.0000 C   0  0  0  0  0  0  0  0  0
    3.4097   -1.2372    0.0000 C   0  0  0  0  0  0  0  0  0
  1  2  1  0  0  0  0
  1 17  1  0  0  0  0
  2  3  1  0  0  0  0
  3  4  1  0  0  0  0
  3  8  1  0  0  0  0
  4  5  4  0  0  0  0
  4 16  4  0  0  0  0
  5  6  1  0  0  0  0
  5 13  4  0  0  0  0
  6  7  1  0  0  0  0
  7  8  4  0  0  0  0
  7 12  4  0  0  0  0
  8  9  4  0  0  0  0
  9 10  4  0  0  0  0
 10 11  4  0  0  0  0
 11 12  4  0  0  0  0
 13 14  4  0  0  0  0
 14 15  4  0  0  0  0
 15 16  4  0  0  0  0
 17 18  1  0  0  0  0
 18 19  1  0  0  0  0
 19 20  1  0  0  0  0
 20 21  1  0  0  0  0
 21 22  4  0  0  0  0
 21 26  4  0  0  0  0
 22 23  4  0  0  0  0
 23 24  4  0  0  0  0
 24 25  4  0  0  0  0
 25 26  4  0  0  0  0
M  END
>  <Name_Molregno>
599998

>  <5-HT2A>
6.44

>  <HISTAMINE H1>
6.02

$$$$
603352
  Marvin  02231216192D 0   1.00000     0.00000     0

 30 32  0  0  0  0  0  0  0  0999 V2000
   -0.1045    0.7430    0.0000 Br  0  0  0  0  0  0  0  0  0
   -0.1045   -0.0820    0.0000 C   0  0  0  0  0  0  0  0  0
    0.5629   -0.5669    0.0000 C   0  0  0  0  0  0  0  0  0
    0.3080   -1.3515    0.0000 N   0  0  0  0  0  0  0  0  0
   -0.5170   -1.3515    0.0000 N   0  0  0  0  0  0  0  0  0
   -1.0019   -2.0190    0.0000 C   0  0  0  0  0  0  0  0  0
   -0.7719   -0.5669    0.0000 C   0  0  0  0  0  0  0  0  0
   -1.5566   -0.3120    0.0000 C   0  0  0  0  0  0  0  0  0
   -2.1696   -0.8640    0.0000 C   0  0  0  0  0  0  0  0  0
   -2.9543   -0.6091    0.0000 C   0  0  0  0  0  0  0  0  0
   -3.5674   -1.1611    0.0000 N   0  0  0  0  0  0  0  0  0
   -4.3520   -0.9062    0.0000 C   0  0  0  0  0  0  0  0  0
   -4.5235   -0.0992    0.0000 O   0  0  0  0  0  0  0  0  0
   -4.9651   -1.4582    0.0000 N   0  0  0  0  0  0  0  0  0
   -5.7497   -1.2033    0.0000 C   0  0  0  0  0  0  0  0  0
   -6.3628   -1.7553    0.0000 C   0  0  0  0  0  0  0  0  0
   -7.1474   -1.5003    0.0000 C   0  0  0  0  0  0  0  0  0
   -7.7605   -2.0524    0.0000 C   0  0  0  0  0  0  0  0  0
   -8.3736   -2.6044    0.0000 F   0  0  0  0  0  0  0  0  0
   -8.3125   -1.4393    0.0000 F   0  0  0  0  0  0  0  0  0
   -7.2085   -2.6655    0.0000 F   0  0  0  0  0  0  0  0  0
   -7.3189   -0.6934    0.0000 C   0  0  0  0  0  0  0  0  0
   -8.1036   -0.4384    0.0000 Cl  0  0  0  0  0  0  0  0  0
   -6.7059   -0.1413    0.0000 C   0  0  0  0  0  0  0  0  0
   -5.9212   -0.3963    0.0000 C   0  0  0  0  0  0  0  0  0
   -3.1258    0.1979    0.0000 C   0  0  0  0  0  0  0  0  0
   -2.5127    0.7499    0.0000 C   0  0  0  0  0  0  0  0  0
   -1.7281    0.4950    0.0000 C   0  0  0  0  0  0  0  0  0
   -1.1150    1.0470    0.0000 O   0  0  0  0  0  0  0  0  0
   -1.2865    1.8540    0.0000 C   0  0  0  0  0  0  0  0  0
  1  2  1  0  0  0  0
  2  3  4  0  0  0  0
  2  7  4  0  0  0  0
  3  4  4  0  0  0  0
  4  5  4  0  0  0  0
  5  6  1  0  0  0  0
  5  7  4  0  0  0  0
  7  8  1  0  0  0  0
  8  9  4  0  0  0  0
  8 28  4  0  0  0  0
  9 10  4  0  0  0  0
 10 11  1  0  0  0  0
 10 26  4  0  0  0  0
 11 12  1  0  0  0  0
 12 13  2  0  0  0  0
 12 14  1  0  0  0  0
 14 15  1  0  0  0  0
 15 16  4  0  0  0  0
 15 25  4  0  0  0  0
 16 17  4  0  0  0  0
 17 18  1  0  0  0  0
 17 22  4  0  0  0  0
 18 19  1  0  0  0  0
 18 20  1  0  0  0  0
 18 21  1  0  0  0  0
 22 23  1  0  0  0  0
 22 24  4  0  0  0  0
 24 25  4  0  0  0  0
 26 27  4  0  0  0  0
 27 28  4  0  0  0  0
 28 29  1  0  0  0  0
 29 30  1  0  0  0  0
M  END
>  <Name_Molregno>
603352

>  <5-HT2A>
9.5

>  <5-HT2C>
8.5

$$$$
603353
  Marvin  02231216192D 0   1.00000     0.00000     0

 26 28  0  0  0  0  0  0  0  0999 V2000
   -0.0919    0.6283    0.0000 Br  0  0  0  0  0  0  0  0  0
   -0.0919   -0.1967    0.0000 C   0  0  0  0  0  0  0  0  0
    0.5755   -0.6816    0.0000 C   0  0  0  0  0  0  0  0  0
    0.3206   -1.4662    0.0000 N   0  0  0  0  0  0  0  0  0
   -0.5044   -1.4662    0.0000 N   0  0  0  0  0  0  0  0  0
   -0.9894   -2.1337    0.0000 C   0  0  0  0  0  0  0  0  0
   -0.7594   -0.6816    0.0000 C   0  0  0  0  0  0  0  0  0
   -1.5440   -0.4267    0.0000 C   0  0  0  0  0  0  0  0  0
   -2.1571   -0.9787    0.0000 C   0  0  0  0  0  0  0  0  0
   -2.9417   -0.7238    0.0000 C   0  0  0  0  0  0  0  0  0
   -3.5548   -1.2758    0.0000 N   0  0  0  0  0  0  0  0  0
   -4.3394   -1.0209    0.0000 C   0  0  0  0  0  0  0  0  0
   -4.5110   -0.2139    0.0000 O   0  0  0  0  0  0  0  0  0
   -4.9525   -1.5729    0.0000 N   0  0  0  0  0  0  0  0  0
   -5.7371   -1.3180    0.0000 C   0  0  0  0  0  0  0  0  0
   -6.3502   -1.8700    0.0000 C   0  0  0  0  0  0  0  0  0
   -7.1349   -1.6151    0.0000 C   0  0  0  0  0  0  0  0  0
   -7.3064   -0.8081    0.0000 C   0  0  0  0  0  0  0  0  0
   -8.0910   -0.5531    0.0000 Cl  0  0  0  0  0  0  0  0  0
   -6.6933   -0.2560    0.0000 C   0  0  0  0  0  0  0  0  0
   -5.9087   -0.5110    0.0000 C   0  0  0  0  0  0  0  0  0
   -3.1132    0.0832    0.0000 C   0  0  0  0  0  0  0  0  0
   -2.5001    0.6352    0.0000 C   0  0  0  0  0  0  0  0  0
   -1.7155    0.3803    0.0000 C   0  0  0  0  0  0  0  0  0
   -1.1024    0.9323    0.0000 O   0  0  0  0  0  0  0  0  0
   -1.2740    1.7393    0.0000 C   0  0  0  0  0  0  0  0  0
  1  2  1  0  0  0  0
  2  3  4  0  0  0  0
  2  7  4  0  0  0  0
  3  4  4  0  0  0  0
  4  5  4  0  0  0  0
  5  6  1  0  0  0  0
  5  7  4  0  0  0  0
  7  8  1  0  0  0  0
  8  9  4  0  0  0  0
  8 24  4  0  0  0  0
  9 10  4  0  0  0  0
 10 11  1  0  0  0  0
 10 22  4  0  0  0  0
 11 12  1  0  0  0  0
 12 13  2  0  0  0  0
 12 14  1  0  0  0  0
 14 15  1  0  0  0  0
 15 16  4  0  0  0  0
 15 21  4  0  0  0  0
 16 17  4  0  0  0  0
 17 18  4  0  0  0  0
 18 19  1  0  0  0  0
 18 20  4  0  0  0  0
 20 21  4  0  0  0  0
 22 23  4  0  0  0  0
 23 24  4  0  0  0  0
 24 25  1  0  0  0  0
 25 26  1  0  0  0  0
M  END
>  <Name_Molregno>
603353

>  <5-HT2A>
9.3

>  <5-HT2C>
8

$$$$
603354
  Marvin  02231216192D 0   1.00000     0.00000     0

 26 28  0  0  0  0  0  0  0  0999 V2000
    0.6104    0.5674    0.0000 Br  0  0  0  0  0  0  0  0  0
    0.6104   -0.2576    0.0000 C   0  0  0  0  0  0  0  0  0
    1.2778   -0.7426    0.0000 C   0  0  0  0  0  0  0  0  0
    1.0229   -1.5272    0.0000 N   0  0  0  0  0  0  0  0  0
    0.1979   -1.5272    0.0000 N   0  0  0  0  0  0  0  0  0
   -0.2870   -2.1946    0.0000 C   0  0  0  0  0  0  0  0  0
   -0.0571   -0.7426    0.0000 C   0  0  0  0  0  0  0  0  0
   -0.8417   -0.4876    0.0000 C   0  0  0  0  0  0  0  0  0
   -1.4548   -1.0397    0.0000 C   0  0  0  0  0  0  0  0  0
   -2.2394   -0.7847    0.0000 C   0  0  0  0  0  0  0  0  0
   -2.8525   -1.3368    0.0000 N   0  0  0  0  0  0  0  0  0
   -3.6371   -1.0818    0.0000 C   0  0  0  0  0  0  0  0  0
   -3.8086   -0.2748    0.0000 O   0  0  0  0  0  0  0  0  0
   -4.2502   -1.6338    0.0000 N   0  0  0  0  0  0  0  0  0
   -5.0348   -1.3789    0.0000 C   0  0  0  0  0  0  0  0  0
   -5.6479   -1.9309    0.0000 C   0  0  0  0  0  0  0  0  0
   -6.4325   -1.6760    0.0000 C   0  0  0  0  0  0  0  0  0
   -7.0456   -2.2280    0.0000 Cl  0  0  0  0  0  0  0  0  0
   -6.6041   -0.8690    0.0000 C   0  0  0  0  0  0  0  0  0
   -5.9910   -0.3170    0.0000 C   0  0  0  0  0  0  0  0  0
   -5.2064   -0.5719    0.0000 C   0  0  0  0  0  0  0  0  0
   -2.4109    0.0222    0.0000 C   0  0  0  0  0  0  0  0  0
   -1.7978    0.5743    0.0000 C   0  0  0  0  0  0  0  0  0
   -1.0132    0.3193    0.0000 C   0  0  0  0  0  0  0  0  0
   -0.4001    0.8714    0.0000 O   0  0  0  0  0  0  0  0  0
   -0.5716    1.6783    0.0000 C   0  0  0  0  0  0  0  0  0
  1  2  1  0  0  0  0
  2  3  4  0  0  0  0
  2  7  4  0  0  0  0
  3  4  4  0  0  0  0
  4  5  4  0  0  0  0
  5  6  1  0  0  0  0
  5  7  4  0  0  0  0
  7  8  1  0  0  0  0
  8  9  4  0  0  0  0
  8 24  4  0  0  0  0
  9 10  4  0  0  0  0
 10 11  1  0  0  0  0
 10 22  4  0  0  0  0
 11 12  1  0  0  0  0
 12 13  2  0  0  0  0
 12 14  1  0  0  0  0
 14 15  1  0  0  0  0
 15 16  4  0  0  0  0
 15 21  4  0  0  0  0
 16 17  4  0  0  0  0
 17 18  1  0  0  0  0
 17 19  4  0  0  0  0
 19 20  4  0  0  0  0
 20 21  4  0  0  0  0
 22 23  4  0  0  0  0
 23 24  4  0  0  0  0
 24 25  1  0  0  0  0
 25 26  1  0  0  0  0
M  END
>  <Name_Molregno>
603354

>  <5-HT2A>
9.6

>  <5-HT2C>
7.8

$$$$
603355
  Marvin  02231216192D 0   1.00000     0.00000     0

 26 28  0  0  0  0  0  0  0  0999 V2000
   -0.0919    0.6283    0.0000 Br  0  0  0  0  0  0  0  0  0
   -0.0919   -0.1967    0.0000 C   0  0  0  0  0  0  0  0  0
    0.5755   -0.6816    0.0000 C   0  0  0  0  0  0  0  0  0
    0.3206   -1.4662    0.0000 N   0  0  0  0  0  0  0  0  0
   -0.5044   -1.4662    0.0000 N   0  0  0  0  0  0  0  0  0
   -0.9894   -2.1337    0.0000 C   0  0  0  0  0  0  0  0  0
   -0.7594   -0.6816    0.0000 C   0  0  0  0  0  0  0  0  0
   -1.5440   -0.4267    0.0000 C   0  0  0  0  0  0  0  0  0
   -2.1571   -0.9787    0.0000 C   0  0  0  0  0  0  0  0  0
   -2.9417   -0.7238    0.0000 C   0  0  0  0  0  0  0  0  0
   -3.5548   -1.2758    0.0000 N   0  0  0  0  0  0  0  0  0
   -4.3394   -1.0209    0.0000 C   0  0  0  0  0  0  0  0  0
   -4.5110   -0.2139    0.0000 O   0  0  0  0  0  0  0  0  0
   -4.9525   -1.5729    0.0000 N   0  0  0  0  0  0  0  0  0
   -5.7371   -1.3180    0.0000 C   0  0  0  0  0  0  0  0  0
   -6.3502   -1.8700    0.0000 C   0  0  0  0  0  0  0  0  0
   -7.1349   -1.6151    0.0000 C   0  0  0  0  0  0  0  0  0
   -7.3064   -0.8081    0.0000 C   0  0  0  0  0  0  0  0  0
   -8.0910   -0.5531    0.0000 F   0  0  0  0  0  0  0  0  0
   -6.6933   -0.2560    0.0000 C   0  0  0  0  0  0  0  0  0
   -5.9087   -0.5110    0.0000 C   0  0  0  0  0  0  0  0  0
   -3.1132    0.0832    0.0000 C   0  0  0  0  0  0  0  0  0
   -2.5001    0.6352    0.0000 C   0  0  0  0  0  0  0  0  0
   -1.7155    0.3803    0.0000 C   0  0  0  0  0  0  0  0  0
   -1.1024    0.9323    0.0000 O   0  0  0  0  0  0  0  0  0
   -1.2740    1.7393    0.0000 C   0  0  0  0  0  0  0  0  0
  1  2  1  0  0  0  0
  2  3  4  0  0  0  0
  2  7  4  0  0  0  0
  3  4  4  0  0  0  0
  4  5  4  0  0  0  0
  5  6  1  0  0  0  0
  5  7  4  0  0  0  0
  7  8  1  0  0  0  0
  8  9  4  0  0  0  0
  8 24  4  0  0  0  0
  9 10  4  0  0  0  0
 10 11  1  0  0  0  0
 10 22  4  0  0  0  0
 11 12  1  0  0  0  0
 12 13  2  0  0  0  0
 12 14  1  0  0  0  0
 14 15  1  0  0  0  0
 15 16  4  0  0  0  0
 15 21  4  0  0  0  0
 16 17  4  0  0  0  0
 17 18  4  0  0  0  0
 18 19  1  0  0  0  0
 18 20  4  0  0  0  0
 20 21  4  0  0  0  0
 22 23  4  0  0  0  0
 23 24  4  0  0  0  0
 24 25  1  0  0  0  0
 25 26  1  0  0  0  0
M  END
>  <Name_Molregno>
603355

>  <5-HT2A>
9.6

>  <5-HT2C>
7.5

$$$$
603356
  Marvin  02231216192D 0   1.00000     0.00000     0

 26 28  0  0  0  0  0  0  0  0999 V2000
    0.6104    0.5674    0.0000 Br  0  0  0  0  0  0  0  0  0
    0.6104   -0.2576    0.0000 C   0  0  0  0  0  0  0  0  0
    1.2778   -0.7426    0.0000 C   0  0  0  0  0  0  0  0  0
    1.0229   -1.5272    0.0000 N   0  0  0  0  0  0  0  0  0
    0.1979   -1.5272    0.0000 N   0  0  0  0  0  0  0  0  0
   -0.2870   -2.1946    0.0000 C   0  0  0  0  0  0  0  0  0
   -0.0571   -0.7426    0.0000 C   0  0  0  0  0  0  0  0  0
   -0.8417   -0.4876    0.0000 C   0  0  0  0  0  0  0  0  0
   -1.4548   -1.0397    0.0000 C   0  0  0  0  0  0  0  0  0
   -2.2394   -0.7847    0.0000 C   0  0  0  0  0  0  0  0  0
   -2.8525   -1.3368    0.0000 N   0  0  0  0  0  0  0  0  0
   -3.6371   -1.0818    0.0000 C   0  0  0  0  0  0  0  0  0
   -3.8086   -0.2748    0.0000 O   0  0  0  0  0  0  0  0  0
   -4.2502   -1.6338    0.0000 N   0  0  0  0  0  0  0  0  0
   -5.0348   -1.3789    0.0000 C   0  0  0  0  0  0  0  0  0
   -5.6479   -1.9309    0.0000 C   0  0  0  0  0  0  0  0  0
   -6.4325   -1.6760    0.0000 C   0  0  0  0  0  0  0  0  0
   -7.0456   -2.2280    0.0000 F   0  0  0  0  0  0  0  0  0
   -6.6041   -0.8690    0.0000 C   0  0  0  0  0  0  0  0  0
   -5.9910   -0.3170    0.0000 C   0  0  0  0  0  0  0  0  0
   -5.2064   -0.5719    0.0000 C   0  0  0  0  0  0  0  0  0
   -2.4109    0.0222    0.0000 C   0  0  0  0  0  0  0  0  0
   -1.7978    0.5743    0.0000 C   0  0  0  0  0  0  0  0  0
   -1.0132    0.3193    0.0000 C   0  0  0  0  0  0  0  0  0
   -0.4001    0.8714    0.0000 O   0  0  0  0  0  0  0  0  0
   -0.5716    1.6783    0.0000 C   0  0  0  0  0  0  0  0  0
  1  2  1  0  0  0  0
  2  3  4  0  0  0  0
  2  7  4  0  0  0  0
  3  4  4  0  0  0  0
  4  5  4  0  0  0  0
  5  6  1  0  0  0  0
  5  7  4  0  0  0  0
  7  8  1  0  0  0  0
  8  9  4  0  0  0  0
  8 24  4  0  0  0  0
  9 10  4  0  0  0  0
 10 11  1  0  0  0  0
 10 22  4  0  0  0  0
 11 12  1  0  0  0  0
 12 13  2  0  0  0  0
 12 14  1  0  0  0  0
 14 15  1  0  0  0  0
 15 16  4  0  0  0  0
 15 21  4  0  0  0  0
 16 17  4  0  0  0  0
 17 18  1  0  0  0  0
 17 19  4  0  0  0  0
 19 20  4  0  0  0  0
 20 21  4  0  0  0  0
 22 23  4  0  0  0  0
 23 24  4  0  0  0  0
 24 25  1  0  0  0  0
 25 26  1  0  0  0  0
M  END
>  <Name_Molregno>
603356

>  <5-HT2A>
9.5

>  <5-HT2C>
7.4

$$$$
603439
  Marvin  02231216192D 0   1.00000     0.00000     0

 26 28  0  0  0  0  0  0  0  0999 V2000
   -0.1370    0.4808    0.0000 Br  0  0  0  0  0  0  0  0  0
   -0.1370   -0.3442    0.0000 C   0  0  0  0  0  0  0  0  0
    0.5304   -0.8291    0.0000 C   0  0  0  0  0  0  0  0  0
    0.2755   -1.6137    0.0000 N   0  0  0  0  0  0  0  0  0
   -0.5495   -1.6137    0.0000 N   0  0  0  0  0  0  0  0  0
   -1.0345   -2.2811    0.0000 C   0  0  0  0  0  0  0  0  0
   -0.8045   -0.8291    0.0000 C   0  0  0  0  0  0  0  0  0
   -1.5891   -0.5741    0.0000 C   0  0  0  0  0  0  0  0  0
   -2.2022   -1.1262    0.0000 C   0  0  0  0  0  0  0  0  0
   -2.9868   -0.8712    0.0000 C   0  0  0  0  0  0  0  0  0
   -3.5999   -1.4233    0.0000 N   0  0  0  0  0  0  0  0  0
   -4.3845   -1.1683    0.0000 C   0  0  0  0  0  0  0  0  0
   -4.5561   -0.3614    0.0000 O   0  0  0  0  0  0  0  0  0
   -4.9976   -1.7204    0.0000 N   0  0  0  0  0  0  0  0  0
   -5.7823   -1.4654    0.0000 C   0  0  0  0  0  0  0  0  0
   -6.3953   -2.0175    0.0000 C   0  0  0  0  0  0  0  0  0
   -7.1800   -1.7625    0.0000 C   0  0  0  0  0  0  0  0  0
   -7.3515   -0.9555    0.0000 C   0  0  0  0  0  0  0  0  0
   -6.7384   -0.4035    0.0000 C   0  0  0  0  0  0  0  0  0
   -5.9538   -0.6585    0.0000 C   0  0  0  0  0  0  0  0  0
   -5.3407   -0.1064    0.0000 F   0  0  0  0  0  0  0  0  0
   -3.1583   -0.0643    0.0000 C   0  0  0  0  0  0  0  0  0
   -2.5453    0.4878    0.0000 C   0  0  0  0  0  0  0  0  0
   -1.7606    0.2328    0.0000 C   0  0  0  0  0  0  0  0  0
   -1.1475    0.7849    0.0000 O   0  0  0  0  0  0  0  0  0
   -1.3191    1.5918    0.0000 C   0  0  0  0  0  0  0  0  0
  1  2  1  0  0  0  0
  2  3  4  0  0  0  0
  2  7  4  0  0  0  0
  3  4  4  0  0  0  0
  4  5  4  0  0  0  0
  5  6  1  0  0  0  0
  5  7  4  0  0  0  0
  7  8  1  0  0  0  0
  8  9  4  0  0  0  0
  8 24  4  0  0  0  0
  9 10  4  0  0  0  0
 10 11  1  0  0  0  0
 10 22  4  0  0  0  0
 11 12  1  0  0  0  0
 12 13  2  0  0  0  0
 12 14  1  0  0  0  0
 14 15  1  0  0  0  0
 15 16  4  0  0  0  0
 15 20  4  0  0  0  0
 16 17  4  0  0  0  0
 17 18  4  0  0  0  0
 18 19  4  0  0  0  0
 19 20  4  0  0  0  0
 20 21  1  0  0  0  0
 22 23  4  0  0  0  0
 23 24  4  0  0  0  0
 24 25  1  0  0  0  0
 25 26  1  0  0  0  0
M  END
>  <Name_Molregno>
603439

>  <5-HT2A>
9

>  <5-HT2C>
6.4

$$$$
603440
  Marvin  02231216192D 0   1.00000     0.00000     0

 26 28  0  0  0  0  0  0  0  0999 V2000
   -0.0919    0.6283    0.0000 Br  0  0  0  0  0  0  0  0  0
   -0.0919   -0.1967    0.0000 C   0  0  0  0  0  0  0  0  0
    0.5755   -0.6816    0.0000 C   0  0  0  0  0  0  0  0  0
    0.3206   -1.4662    0.0000 N   0  0  0  0  0  0  0  0  0
   -0.5044   -1.4662    0.0000 N   0  0  0  0  0  0  0  0  0
   -0.9894   -2.1337    0.0000 C   0  0  0  0  0  0  0  0  0
   -0.7594   -0.6816    0.0000 C   0  0  0  0  0  0  0  0  0
   -1.5440   -0.4267    0.0000 C   0  0  0  0  0  0  0  0  0
   -2.1571   -0.9787    0.0000 C   0  0  0  0  0  0  0  0  0
   -2.9417   -0.7238    0.0000 C   0  0  0  0  0  0  0  0  0
   -3.5548   -1.2758    0.0000 N   0  0  0  0  0  0  0  0  0
   -4.3394   -1.0209    0.0000 C   0  0  0  0  0  0  0  0  0
   -4.5110   -0.2139    0.0000 O   0  0  0  0  0  0  0  0  0
   -4.9525   -1.5729    0.0000 N   0  0  0  0  0  0  0  0  0
   -5.7371   -1.3180    0.0000 C   0  0  0  0  0  0  0  0  0
   -6.3502   -1.8700    0.0000 C   0  0  0  0  0  0  0  0  0
   -7.1349   -1.6151    0.0000 C   0  0  0  0  0  0  0  0  0
   -7.3064   -0.8081    0.0000 C   0  0  0  0  0  0  0  0  0
   -8.0910   -0.5531    0.0000 Br  0  0  0  0  0  0  0  0  0
   -6.6933   -0.2560    0.0000 C   0  0  0  0  0  0  0  0  0
   -5.9087   -0.5110    0.0000 C   0  0  0  0  0  0  0  0  0
   -3.1132    0.0832    0.0000 C   0  0  0  0  0  0  0  0  0
   -2.5001    0.6352    0.0000 C   0  0  0  0  0  0  0  0  0
   -1.7155    0.3803    0.0000 C   0  0  0  0  0  0  0  0  0
   -1.1024    0.9323    0.0000 O   0  0  0  0  0  0  0  0  0
   -1.2740    1.7393    0.0000 C   0  0  0  0  0  0  0  0  0
  1  2  1  0  0  0  0
  2  3  4  0  0  0  0
  2  7  4  0  0  0  0
  3  4  4  0  0  0  0
  4  5  4  0  0  0  0
  5  6  1  0  0  0  0
  5  7  4  0  0  0  0
  7  8  1  0  0  0  0
  8  9  4  0  0  0  0
  8 24  4  0  0  0  0
  9 10  4  0  0  0  0
 10 11  1  0  0  0  0
 10 22  4  0  0  0  0
 11 12  1  0  0  0  0
 12 13  2  0  0  0  0
 12 14  1  0  0  0  0
 14 15  1  0  0  0  0
 15 16  4  0  0  0  0
 15 21  4  0  0  0  0
 16 17  4  0  0  0  0
 17 18  4  0  0  0  0
 18 19  1  0  0  0  0
 18 20  4  0  0  0  0
 20 21  4  0  0  0  0
 22 23  4  0  0  0  0
 23 24  4  0  0  0  0
 24 25  1  0  0  0  0
 25 26  1  0  0  0  0
M  END
>  <Name_Molregno>
603440

>  <5-HT2A>
9.6

>  <5-HT2C>
8.4

$$$$
603441
  Marvin  02231216192D 0   1.00000     0.00000     0

 29 31  0  0  0  0  0  0  0  0999 V2000
    1.2885   -0.3268    0.0000 Br  0  0  0  0  0  0  0  0  0
    1.2885   -1.1518    0.0000 C   0  0  0  0  0  0  0  0  0
    1.9559   -1.6367    0.0000 C   0  0  0  0  0  0  0  0  0
    1.7010   -2.4213    0.0000 N   0  0  0  0  0  0  0  0  0
    0.8760   -2.4213    0.0000 N   0  0  0  0  0  0  0  0  0
    0.3910   -3.0887    0.0000 C   0  0  0  0  0  0  0  0  0
    0.6210   -1.6367    0.0000 C   0  0  0  0  0  0  0  0  0
   -0.1636   -1.3817    0.0000 C   0  0  0  0  0  0  0  0  0
   -0.7767   -1.9338    0.0000 C   0  0  0  0  0  0  0  0  0
   -1.5613   -1.6788    0.0000 C   0  0  0  0  0  0  0  0  0
   -2.1744   -2.2309    0.0000 N   0  0  0  0  0  0  0  0  0
   -2.9590   -1.9759    0.0000 C   0  0  0  0  0  0  0  0  0
   -3.1306   -1.1690    0.0000 O   0  0  0  0  0  0  0  0  0
   -3.5721   -2.5280    0.0000 N   0  0  0  0  0  0  0  0  0
   -4.3567   -2.2730    0.0000 C   0  0  0  0  0  0  0  0  0
   -4.9698   -2.8251    0.0000 C   0  0  0  0  0  0  0  0  0
   -5.7545   -2.5701    0.0000 C   0  0  0  0  0  0  0  0  0
   -5.9260   -1.7631    0.0000 C   0  0  0  0  0  0  0  0  0
   -5.3129   -1.2111    0.0000 C   0  0  0  0  0  0  0  0  0
   -4.5283   -1.4661    0.0000 C   0  0  0  0  0  0  0  0  0
   -6.3676   -3.1222    0.0000 C   0  0  0  0  0  0  0  0  0
   -6.9807   -3.6742    0.0000 F   0  0  0  0  0  0  0  0  0
   -6.9196   -2.5091    0.0000 F   0  0  0  0  0  0  0  0  0
   -5.8155   -3.7352    0.0000 F   0  0  0  0  0  0  0  0  0
   -1.7328   -0.8719    0.0000 C   0  0  0  0  0  0  0  0  0
   -1.1197   -0.3198    0.0000 C   0  0  0  0  0  0  0  0  0
   -0.3351   -0.5748    0.0000 C   0  0  0  0  0  0  0  0  0
    0.2780   -0.0227    0.0000 O   0  0  0  0  0  0  0  0  0
    0.1064    0.7842    0.0000 C   0  0  0  0  0  0  0  0  0
  1  2  1  0  0  0  0
  2  3  4  0  0  0  0
  2  7  4  0  0  0  0
  3  4  4  0  0  0  0
  4  5  4  0  0  0  0
  5  6  1  0  0  0  0
  5  7  4  0  0  0  0
  7  8  1  0  0  0  0
  8  9  4  0  0  0  0
  8 27  4  0  0  0  0
  9 10  4  0  0  0  0
 10 11  1  0  0  0  0
 10 25  4  0  0  0  0
 11 12  1  0  0  0  0
 12 13  2  0  0  0  0
 12 14  1  0  0  0  0
 14 15  1  0  0  0  0
 15 16  4  0  0  0  0
 15 20  4  0  0  0  0
 16 17  4  0  0  0  0
 17 18  4  0  0  0  0
 17 21  1  0  0  0  0
 18 19  4  0  0  0  0
 19 20  4  0  0  0  0
 21 22  1  0  0  0  0
 21 23  1  0  0  0  0
 21 24  1  0  0  0  0
 25 26  4  0  0  0  0
 26 27  4  0  0  0  0
 27 28  1  0  0  0  0
 28 29  1  0  0  0  0
M  END
>  <Name_Molregno>
603441

>  <5-HT2A>
9.4

>  <5-HT2C>
7.8

$$$$
603442
  Marvin  02231216192D 0   1.00000     0.00000     0

 29 31  0  0  0  0  0  0  0  0999 V2000
   -0.0641    0.7131    0.0000 Br  0  0  0  0  0  0  0  0  0
   -0.0641   -0.1119    0.0000 C   0  0  0  0  0  0  0  0  0
    0.6034   -0.5968    0.0000 C   0  0  0  0  0  0  0  0  0
    0.3484   -1.3814    0.0000 N   0  0  0  0  0  0  0  0  0
   -0.4766   -1.3814    0.0000 N   0  0  0  0  0  0  0  0  0
   -0.9615   -2.0488    0.0000 C   0  0  0  0  0  0  0  0  0
   -0.7315   -0.5968    0.0000 C   0  0  0  0  0  0  0  0  0
   -1.5161   -0.3418    0.0000 C   0  0  0  0  0  0  0  0  0
   -2.1292   -0.8939    0.0000 C   0  0  0  0  0  0  0  0  0
   -2.9138   -0.6389    0.0000 C   0  0  0  0  0  0  0  0  0
   -3.5269   -1.1910    0.0000 N   0  0  0  0  0  0  0  0  0
   -4.3115   -0.9360    0.0000 C   0  0  0  0  0  0  0  0  0
   -4.4831   -0.1291    0.0000 O   0  0  0  0  0  0  0  0  0
   -4.9246   -1.4881    0.0000 N   0  0  0  0  0  0  0  0  0
   -5.7093   -1.2331    0.0000 C   0  0  0  0  0  0  0  0  0
   -6.3224   -1.7851    0.0000 C   0  0  0  0  0  0  0  0  0
   -7.1070   -1.5302    0.0000 C   0  0  0  0  0  0  0  0  0
   -7.2785   -0.7232    0.0000 C   0  0  0  0  0  0  0  0  0
   -6.6654   -0.1712    0.0000 C   0  0  0  0  0  0  0  0  0
   -5.8808   -0.4261    0.0000 C   0  0  0  0  0  0  0  0  0
   -8.0631   -0.4683    0.0000 C   0  0  0  0  0  0  0  0  0
   -8.8478   -0.2134    0.0000 F   0  0  0  0  0  0  0  0  0
   -7.8082    0.3163    0.0000 F   0  0  0  0  0  0  0  0  0
   -8.3181   -1.2529    0.0000 F   0  0  0  0  0  0  0  0  0
   -3.0854    0.1680    0.0000 C   0  0  0  0  0  0  0  0  0
   -2.4723    0.7201    0.0000 C   0  0  0  0  0  0  0  0  0
   -1.6876    0.4651    0.0000 C   0  0  0  0  0  0  0  0  0
   -1.0745    1.0172    0.0000 O   0  0  0  0  0  0  0  0  0
   -1.2461    1.8241    0.0000 C   0  0  0  0  0  0  0  0  0
  1  2  1  0  0  0  0
  2  3  4  0  0  0  0
  2  7  4  0  0  0  0
  3  4  4  0  0  0  0
  4  5  4  0  0  0  0
  5  6  1  0  0  0  0
  5  7  4  0  0  0  0
  7  8  1  0  0  0  0
  8  9  4  0  0  0  0
  8 27  4  0  0  0  0
  9 10  4  0  0  0  0
 10 11  1  0  0  0  0
 10 25  4  0  0  0  0
 11 12  1  0  0  0  0
 12 13  2  0  0  0  0
 12 14  1  0  0  0  0
 14 15  1  0  0  0  0
 15 16  4  0  0  0  0
 15 20  4  0  0  0  0
 16 17  4  0  0  0  0
 17 18  4  0  0  0  0
 18 19  4  0  0  0  0
 18 21  1  0  0  0  0
 19 20  4  0  0  0  0
 21 22  1  0  0  0  0
 21 23  1  0  0  0  0
 21 24  1  0  0  0  0
 25 26  4  0  0  0  0
 26 27  4  0  0  0  0
 27 28  1  0  0  0  0
 28 29  1  0  0  0  0
M  END
>  <Name_Molregno>
603442

>  <5-HT2A>
9.5

>  <5-HT2C>
8.4

$$$$
603443
  Marvin  02231216192D 0   1.00000     0.00000     0

 28 30  0  0  0  0  0  0  0  0999 V2000
   -0.1178    0.7254    0.0000 Br  0  0  0  0  0  0  0  0  0
   -0.1178   -0.0996    0.0000 C   0  0  0  0  0  0  0  0  0
    0.5496   -0.5846    0.0000 C   0  0  0  0  0  0  0  0  0
    0.2947   -1.3692    0.0000 N   0  0  0  0  0  0  0  0  0
   -0.5303   -1.3692    0.0000 N   0  0  0  0  0  0  0  0  0
   -1.0152   -2.0366    0.0000 C   0  0  0  0  0  0  0  0  0
   -0.7853   -0.5846    0.0000 C   0  0  0  0  0  0  0  0  0
   -1.5699   -0.3296    0.0000 C   0  0  0  0  0  0  0  0  0
   -2.1830   -0.8817    0.0000 C   0  0  0  0  0  0  0  0  0
   -2.9676   -0.6267    0.0000 C   0  0  0  0  0  0  0  0  0
   -3.5807   -1.1787    0.0000 N   0  0  0  0  0  0  0  0  0
   -4.3653   -0.9238    0.0000 C   0  0  0  0  0  0  0  0  0
   -4.5368   -0.1168    0.0000 O   0  0  0  0  0  0  0  0  0
   -4.9784   -1.4758    0.0000 N   0  0  0  0  0  0  0  0  0
   -5.7630   -1.2209    0.0000 C   0  0  0  0  0  0  0  0  0
   -6.3761   -1.7729    0.0000 C   0  0  0  0  0  0  0  0  0
   -7.1608   -1.5180    0.0000 C   0  0  0  0  0  0  0  0  0
   -7.3323   -0.7110    0.0000 C   0  0  0  0  0  0  0  0  0
   -6.7192   -0.1590    0.0000 C   0  0  0  0  0  0  0  0  0
   -5.9346   -0.4139    0.0000 C   0  0  0  0  0  0  0  0  0
   -7.7738   -2.0700    0.0000 C   0  0  0  0  0  0  0  0  0
   -7.6023   -2.8770    0.0000 O   0  0  0  0  0  0  0  0  0
   -8.5585   -1.8151    0.0000 C   0  0  0  0  0  0  0  0  0
   -3.1391    0.1803    0.0000 C   0  0  0  0  0  0  0  0  0
   -2.5260    0.7323    0.0000 C   0  0  0  0  0  0  0  0  0
   -1.7414    0.4773    0.0000 C   0  0  0  0  0  0  0  0  0
   -1.1283    1.0294    0.0000 O   0  0  0  0  0  0  0  0  0
   -1.2998    1.8364    0.0000 C   0  0  0  0  0  0  0  0  0
  1  2  1  0  0  0  0
  2  3  4  0  0  0  0
  2  7  4  0  0  0  0
  3  4  4  0  0  0  0
  4  5  4  0  0  0  0
  5  6  1  0  0  0  0
  5  7  4  0  0  0  0
  7  8  1  0  0  0  0
  8  9  4  0  0  0  0
  8 26  4  0  0  0  0
  9 10  4  0  0  0  0
 10 11  1  0  0  0  0
 10 24  4  0  0  0  0
 11 12  1  0  0  0  0
 12 13  2  0  0  0  0
 12 14  1  0  0  0  0
 14 15  1  0  0  0  0
 15 16  4  0  0  0  0
 15 20  4  0  0  0  0
 16 17  4  0  0  0  0
 17 18  4  0  0  0  0
 17 21  1  0  0  0  0
 18 19  4  0  0  0  0
 19 20  4  0  0  0  0
 21 22  2  0  0  0  0
 21 23  1  0  0  0  0
 24 25  4  0  0  0  0
 25 26  4  0  0  0  0
 26 27  1  0  0  0  0
 27 28  1  0  0  0  0
M  END
>  <Name_Molregno>
603443

>  <5-HT2A>
8.6

>  <5-HT2C>
6.6

$$$$
603525
  Marvin  02231216192D 0   1.00000     0.00000     0

 27 29  0  0  0  0  0  0  0  0999 V2000
   -0.0853    0.6606    0.0000 Br  0  0  0  0  0  0  0  0  0
   -0.0853   -0.1644    0.0000 C   0  0  0  0  0  0  0  0  0
    0.5821   -0.6494    0.0000 C   0  0  0  0  0  0  0  0  0
    0.3272   -1.4340    0.0000 N   0  0  0  0  0  0  0  0  0
   -0.4978   -1.4340    0.0000 N   0  0  0  0  0  0  0  0  0
   -0.9828   -2.1014    0.0000 C   0  0  0  0  0  0  0  0  0
   -0.7528   -0.6494    0.0000 C   0  0  0  0  0  0  0  0  0
   -1.5374   -0.3944    0.0000 C   0  0  0  0  0  0  0  0  0
   -2.1505   -0.9464    0.0000 C   0  0  0  0  0  0  0  0  0
   -2.9351   -0.6915    0.0000 C   0  0  0  0  0  0  0  0  0
   -3.5482   -1.2435    0.0000 N   0  0  0  0  0  0  0  0  0
   -4.3328   -0.9886    0.0000 C   0  0  0  0  0  0  0  0  0
   -4.5044   -0.1816    0.0000 O   0  0  0  0  0  0  0  0  0
   -4.9459   -1.5406    0.0000 N   0  0  0  0  0  0  0  0  0
   -5.7305   -1.2857    0.0000 C   0  0  0  0  0  0  0  0  0
   -6.3436   -1.8377    0.0000 C   0  0  0  0  0  0  0  0  0
   -7.1283   -1.5828    0.0000 C   0  0  0  0  0  0  0  0  0
   -7.2998   -0.7758    0.0000 C   0  0  0  0  0  0  0  0  0
   -8.0844   -0.5209    0.0000 O   0  0  0  0  0  0  0  0  0
   -8.6975   -1.0729    0.0000 C   0  0  0  0  0  0  0  0  0
   -6.6867   -0.2238    0.0000 C   0  0  0  0  0  0  0  0  0
   -5.9021   -0.4787    0.0000 C   0  0  0  0  0  0  0  0  0
   -3.1066    0.1155    0.0000 C   0  0  0  0  0  0  0  0  0
   -2.4935    0.6675    0.0000 C   0  0  0  0  0  0  0  0  0
   -1.7089    0.4126    0.0000 C   0  0  0  0  0  0  0  0  0
   -1.0958    0.9646    0.0000 O   0  0  0  0  0  0  0  0  0
   -1.2674    1.7716    0.0000 C   0  0  0  0  0  0  0  0  0
  1  2  1  0  0  0  0
  2  3  4  0  0  0  0
  2  7  4  0  0  0  0
  3  4  4  0  0  0  0
  4  5  4  0  0  0  0
  5  6  1  0  0  0  0
  5  7  4  0  0  0  0
  7  8  1  0  0  0  0
  8  9  4  0  0  0  0
  8 25  4  0  0  0  0
  9 10  4  0  0  0  0
 10 11  1  0  0  0  0
 10 23  4  0  0  0  0
 11 12  1  0  0  0  0
 12 13  2  0  0  0  0
 12 14  1  0  0  0  0
 14 15  1  0  0  0  0
 15 16  4  0  0  0  0
 15 22  4  0  0  0  0
 16 17  4  0  0  0  0
 17 18  4  0  0  0  0
 18 19  1  0  0  0  0
 18 21  4  0  0  0  0
 19 20  1  0  0  0  0
 21 22  4  0  0  0  0
 23 24  4  0  0  0  0
 24 25  4  0  0  0  0
 25 26  1  0  0  0  0
 26 27  1  0  0  0  0
M  END
>  <Name_Molregno>
603525

>  <5-HT2A>
9.3

>  <5-HT2C>
6.9

$$$$
603526
  Marvin  02231216192D 0   1.00000     0.00000     0

 28 30  0  0  0  0  0  0  0  0999 V2000
    0.6207    0.5286    0.0000 Br  0  0  0  0  0  0  0  0  0
    0.6207   -0.2964    0.0000 C   0  0  0  0  0  0  0  0  0
    1.2882   -0.7813    0.0000 C   0  0  0  0  0  0  0  0  0
    1.0332   -1.5659    0.0000 N   0  0  0  0  0  0  0  0  0
    0.2082   -1.5659    0.0000 N   0  0  0  0  0  0  0  0  0
   -0.2767   -2.2334    0.0000 C   0  0  0  0  0  0  0  0  0
   -0.0467   -0.7813    0.0000 C   0  0  0  0  0  0  0  0  0
   -0.8313   -0.5264    0.0000 C   0  0  0  0  0  0  0  0  0
   -1.4444   -1.0784    0.0000 C   0  0  0  0  0  0  0  0  0
   -2.2290   -0.8235    0.0000 C   0  0  0  0  0  0  0  0  0
   -2.8421   -1.3755    0.0000 N   0  0  0  0  0  0  0  0  0
   -3.6268   -1.1206    0.0000 C   0  0  0  0  0  0  0  0  0
   -3.7983   -0.3136    0.0000 O   0  0  0  0  0  0  0  0  0
   -4.2398   -1.6726    0.0000 N   0  0  0  0  0  0  0  0  0
   -5.0245   -1.4177    0.0000 C   0  0  0  0  0  0  0  0  0
   -5.6376   -1.9697    0.0000 C   0  0  0  0  0  0  0  0  0
   -6.4222   -1.7147    0.0000 C   0  0  0  0  0  0  0  0  0
   -6.5937   -0.9078    0.0000 C   0  0  0  0  0  0  0  0  0
   -7.3783   -0.6528    0.0000 N   0  0  0  0  0  0  0  0  0
   -7.9914   -1.2049    0.0000 C   0  0  0  0  0  0  0  0  0
   -7.5499    0.1541    0.0000 C   0  0  0  0  0  0  0  0  0
   -5.9806   -0.3557    0.0000 C   0  0  0  0  0  0  0  0  0
   -5.1960   -0.6107    0.0000 C   0  0  0  0  0  0  0  0  0
   -2.4006   -0.0165    0.0000 C   0  0  0  0  0  0  0  0  0
   -1.7875    0.5355    0.0000 C   0  0  0  0  0  0  0  0  0
   -1.0029    0.2806    0.0000 C   0  0  0  0  0  0  0  0  0
   -0.3898    0.8326    0.0000 O   0  0  0  0  0  0  0  0  0
   -0.5613    1.6396    0.0000 C   0  0  0  0  0  0  0  0  0
  1  2  1  0  0  0  0
  2  3  4  0  0  0  0
  2  7  4  0  0  0  0
  3  4  4  0  0  0  0
  4  5  4  0  0  0  0
  5  6  1  0  0  0  0
  5  7  4  0  0  0  0
  7  8  1  0  0  0  0
  8  9  4  0  0  0  0
  8 26  4  0  0  0  0
  9 10  4  0  0  0  0
 10 11  1  0  0  0  0
 10 24  4  0  0  0  0
 11 12  1  0  0  0  0
 12 13  2  0  0  0  0
 12 14  1  0  0  0  0
 14 15  1  0  0  0  0
 15 16  4  0  0  0  0
 15 23  4  0  0  0  0
 16 17  4  0  0  0  0
 17 18  4  0  0  0  0
 18 19  1  0  0  0  0
 18 22  4  0  0  0  0
 19 20  1  0  0  0  0
 19 21  1  0  0  0  0
 22 23  4  0  0  0  0
 24 25  4  0  0  0  0
 25 26  4  0  0  0  0
 26 27  1  0  0  0  0
 27 28  1  0  0  0  0
M  END
>  <Name_Molregno>
603526

>  <5-HT2A>
8.8

>  <5-HT2C>
6.4

$$$$
603527
  Marvin  02231216192D 0   1.00000     0.00000     0

 28 30  0  0  0  0  0  0  0  0999 V2000
    0.6207    0.5286    0.0000 Br  0  0  0  0  0  0  0  0  0
    0.6207   -0.2964    0.0000 C   0  0  0  0  0  0  0  0  0
    1.2882   -0.7813    0.0000 C   0  0  0  0  0  0  0  0  0
    1.0332   -1.5659    0.0000 N   0  0  0  0  0  0  0  0  0
    0.2082   -1.5659    0.0000 N   0  0  0  0  0  0  0  0  0
   -0.2767   -2.2334    0.0000 C   0  0  0  0  0  0  0  0  0
   -0.0467   -0.7813    0.0000 C   0  0  0  0  0  0  0  0  0
   -0.8313   -0.5264    0.0000 C   0  0  0  0  0  0  0  0  0
   -1.4444   -1.0784    0.0000 C   0  0  0  0  0  0  0  0  0
   -2.2290   -0.8235    0.0000 C   0  0  0  0  0  0  0  0  0
   -2.8421   -1.3755    0.0000 N   0  0  0  0  0  0  0  0  0
   -3.6268   -1.1206    0.0000 C   0  0  0  0  0  0  0  0  0
   -3.7983   -0.3136    0.0000 O   0  0  0  0  0  0  0  0  0
   -4.2398   -1.6726    0.0000 N   0  0  0  0  0  0  0  0  0
   -5.0245   -1.4177    0.0000 C   0  0  0  0  0  0  0  0  0
   -5.6376   -1.9697    0.0000 C   0  0  0  0  0  0  0  0  0
   -6.4222   -1.7147    0.0000 C   0  0  0  0  0  0  0  0  0
   -6.5937   -0.9078    0.0000 C   0  0  0  0  0  0  0  0  0
   -5.9806   -0.3557    0.0000 C   0  0  0  0  0  0  0  0  0
   -5.1960   -0.6107    0.0000 C   0  0  0  0  0  0  0  0  0
   -7.3783   -0.6528    0.0000 C   0  0  0  0  0  0  0  0  0
   -7.9914   -1.2049    0.0000 C   0  0  0  0  0  0  0  0  0
   -7.5499    0.1541    0.0000 C   0  0  0  0  0  0  0  0  0
   -2.4006   -0.0165    0.0000 C   0  0  0  0  0  0  0  0  0
   -1.7875    0.5355    0.0000 C   0  0  0  0  0  0  0  0  0
   -1.0029    0.2806    0.0000 C   0  0  0  0  0  0  0  0  0
   -0.3898    0.8326    0.0000 O   0  0  0  0  0  0  0  0  0
   -0.5613    1.6396    0.0000 C   0  0  0  0  0  0  0  0  0
  1  2  1  0  0  0  0
  2  3  4  0  0  0  0
  2  7  4  0  0  0  0
  3  4  4  0  0  0  0
  4  5  4  0  0  0  0
  5  6  1  0  0  0  0
  5  7  4  0  0  0  0
  7  8  1  0  0  0  0
  8  9  4  0  0  0  0
  8 26  4  0  0  0  0
  9 10  4  0  0  0  0
 10 11  1  0  0  0  0
 10 24  4  0  0  0  0
 11 12  1  0  0  0  0
 12 13  2  0  0  0  0
 12 14  1  0  0  0  0
 14 15  1  0  0  0  0
 15 16  4  0  0  0  0
 15 20  4  0  0  0  0
 16 17  4  0  0  0  0
 17 18  4  0  0  0  0
 18 19  4  0  0  0  0
 18 21  1  0  0  0  0
 19 20  4  0  0  0  0
 21 22  1  0  0  0  0
 21 23  1  0  0  0  0
 24 25  4  0  0  0  0
 25 26  4  0  0  0  0
 26 27  1  0  0  0  0
 27 28  1  0  0  0  0
M  END
>  <Name_Molregno>
603527

>  <5-HT2A>
9.5

>  <5-HT2C>
7.6

$$$$
603528
  Marvin  02231216192D 0   1.00000     0.00000     0

 27 29  0  0  0  0  0  0  0  0999 V2000
   -0.1084    0.6603    0.0000 Br  0  0  0  0  0  0  0  0  0
   -0.1084   -0.1647    0.0000 C   0  0  0  0  0  0  0  0  0
    0.5590   -0.6496    0.0000 C   0  0  0  0  0  0  0  0  0
    0.3041   -1.4342    0.0000 N   0  0  0  0  0  0  0  0  0
   -0.5209   -1.4342    0.0000 N   0  0  0  0  0  0  0  0  0
   -1.0058   -2.1016    0.0000 C   0  0  0  0  0  0  0  0  0
   -0.7758   -0.6496    0.0000 C   0  0  0  0  0  0  0  0  0
   -1.5605   -0.3946    0.0000 C   0  0  0  0  0  0  0  0  0
   -2.1736   -0.9467    0.0000 C   0  0  0  0  0  0  0  0  0
   -2.9582   -0.6917    0.0000 C   0  0  0  0  0  0  0  0  0
   -3.5713   -1.2438    0.0000 N   0  0  0  0  0  0  0  0  0
   -4.3559   -0.9888    0.0000 C   0  0  0  0  0  0  0  0  0
   -4.5274   -0.1819    0.0000 O   0  0  0  0  0  0  0  0  0
   -4.9690   -1.5409    0.0000 N   0  0  0  0  0  0  0  0  0
   -5.7536   -1.2859    0.0000 C   0  0  0  0  0  0  0  0  0
   -6.3667   -1.8380    0.0000 C   0  0  0  0  0  0  0  0  0
   -7.1513   -1.5830    0.0000 C   0  0  0  0  0  0  0  0  0
   -7.3229   -0.7760    0.0000 C   0  0  0  0  0  0  0  0  0
   -6.7098   -0.2240    0.0000 C   0  0  0  0  0  0  0  0  0
   -5.9251   -0.4790    0.0000 C   0  0  0  0  0  0  0  0  0
   -7.7644   -2.1351    0.0000 C   0  0  0  0  0  0  0  0  0
   -8.3775   -2.6871    0.0000 N   0  0  0  0  0  0  0  0  0
   -3.1297    0.1152    0.0000 C   0  0  0  0  0  0  0  0  0
   -2.5166    0.6673    0.0000 C   0  0  0  0  0  0  0  0  0
   -1.7320    0.4123    0.0000 C   0  0  0  0  0  0  0  0  0
   -1.1189    0.9644    0.0000 O   0  0  0  0  0  0  0  0  0
   -1.2904    1.7713    0.0000 C   0  0  0  0  0  0  0  0  0
  1  2  1  0  0  0  0
  2  3  4  0  0  0  0
  2  7  4  0  0  0  0
  3  4  4  0  0  0  0
  4  5  4  0  0  0  0
  5  6  1  0  0  0  0
  5  7  4  0  0  0  0
  7  8  1  0  0  0  0
  8  9  4  0  0  0  0
  8 25  4  0  0  0  0
  9 10  4  0  0  0  0
 10 11  1  0  0  0  0
 10 23  4  0  0  0  0
 11 12  1  0  0  0  0
 12 13  2  0  0  0  0
 12 14  1  0  0  0  0
 14 15  1  0  0  0  0
 15 16  4  0  0  0  0
 15 20  4  0  0  0  0
 16 17  4  0  0  0  0
 17 18  4  0  0  0  0
 17 21  1  0  0  0  0
 18 19  4  0  0  0  0
 19 20  4  0  0  0  0
 21 22  3  0  0  0  0
 23 24  4  0  0  0  0
 24 25  4  0  0  0  0
 25 26  1  0  0  0  0
 26 27  1  0  0  0  0
M  END
>  <Name_Molregno>
603528

>  <5-HT2A>
9.3

>  <5-HT2C>
7.2

$$$$
603529
  Marvin  02231216192D 0   1.00000     0.00000     0

 28 30  0  0  0  0  0  0  0  0999 V2000
    0.0027    0.2091    0.0000 Br  0  0  0  0  0  0  0  0  0
    0.0027   -0.6159    0.0000 C   0  0  0  0  0  0  0  0  0
    0.6701   -1.1008    0.0000 C   0  0  0  0  0  0  0  0  0
    0.4152   -1.8854    0.0000 N   0  0  0  0  0  0  0  0  0
   -0.4098   -1.8854    0.0000 N   0  0  0  0  0  0  0  0  0
   -0.8948   -2.5529    0.0000 C   0  0  0  0  0  0  0  0  0
   -0.5592   -3.3066    0.0000 C   0  0  0  0  0  0  0  0  0
   -1.7153   -2.4666    0.0000 C   0  0  0  0  0  0  0  0  0
   -0.6648   -1.1008    0.0000 C   0  0  0  0  0  0  0  0  0
   -1.4494   -0.8459    0.0000 C   0  0  0  0  0  0  0  0  0
   -2.0625   -1.3979    0.0000 C   0  0  0  0  0  0  0  0  0
   -2.8471   -1.1430    0.0000 C   0  0  0  0  0  0  0  0  0
   -3.4602   -1.6950    0.0000 N   0  0  0  0  0  0  0  0  0
   -4.2448   -1.4401    0.0000 C   0  0  0  0  0  0  0  0  0
   -4.4164   -0.6331    0.0000 O   0  0  0  0  0  0  0  0  0
   -4.8579   -1.9921    0.0000 N   0  0  0  0  0  0  0  0  0
   -5.6426   -1.7372    0.0000 C   0  0  0  0  0  0  0  0  0
   -6.2557   -2.2892    0.0000 C   0  0  0  0  0  0  0  0  0
   -7.0403   -2.0343    0.0000 C   0  0  0  0  0  0  0  0  0
   -7.2118   -1.2273    0.0000 C   0  0  0  0  0  0  0  0  0
   -7.9964   -0.9723    0.0000 Cl  0  0  0  0  0  0  0  0  0
   -6.5987   -0.6752    0.0000 C   0  0  0  0  0  0  0  0  0
   -5.8141   -0.9302    0.0000 C   0  0  0  0  0  0  0  0  0
   -3.0187   -0.3360    0.0000 C   0  0  0  0  0  0  0  0  0
   -2.4056    0.2160    0.0000 C   0  0  0  0  0  0  0  0  0
   -1.6209   -0.0389    0.0000 C   0  0  0  0  0  0  0  0  0
   -1.0078    0.5131    0.0000 O   0  0  0  0  0  0  0  0  0
   -1.1794    1.3201    0.0000 C   0  0  0  0  0  0  0  0  0
  1  2  1  0  0  0  0
  2  3  4  0  0  0  0
  2  9  4  0  0  0  0
  3  4  4  0  0  0  0
  4  5  4  0  0  0  0
  5  6  1  0  0  0  0
  5  9  4  0  0  0  0
  6  7  1  0  0  0  0
  6  8  1  0  0  0  0
  9 10  1  0  0  0  0
 10 11  4  0  0  0  0
 10 26  4  0  0  0  0
 11 12  4  0  0  0  0
 12 13  1  0  0  0  0
 12 24  4  0  0  0  0
 13 14  1  0  0  0  0
 14 15  2  0  0  0  0
 14 16  1  0  0  0  0
 16 17  1  0  0  0  0
 17 18  4  0  0  0  0
 17 23  4  0  0  0  0
 18 19  4  0  0  0  0
 19 20  4  0  0  0  0
 20 21  1  0  0  0  0
 20 22  4  0  0  0  0
 22 23  4  0  0  0  0
 24 25  4  0  0  0  0
 25 26  4  0  0  0  0
 26 27  1  0  0  0  0
 27 28  1  0  0  0  0
M  END
>  <Name_Molregno>
603529

>  <5-HT2A>
9.3

>  <5-HT2C>
8.6

$$$$
603623
  Marvin  02231216192D 0   1.00000     0.00000     0

 28 30  0  0  0  0  0  0  0  0999 V2000
    0.0027    0.2091    0.0000 Br  0  0  0  0  0  0  0  0  0
    0.0027   -0.6159    0.0000 C   0  0  0  0  0  0  0  0  0
    0.6701   -1.1008    0.0000 C   0  0  0  0  0  0  0  0  0
    0.4152   -1.8854    0.0000 N   0  0  0  0  0  0  0  0  0
   -0.4098   -1.8854    0.0000 N   0  0  0  0  0  0  0  0  0
   -0.8948   -2.5529    0.0000 C   0  0  0  0  0  0  0  0  0
   -0.5592   -3.3066    0.0000 C   0  0  0  0  0  0  0  0  0
   -1.7153   -2.4666    0.0000 C   0  0  0  0  0  0  0  0  0
   -0.6648   -1.1008    0.0000 C   0  0  0  0  0  0  0  0  0
   -1.4494   -0.8459    0.0000 C   0  0  0  0  0  0  0  0  0
   -2.0625   -1.3979    0.0000 C   0  0  0  0  0  0  0  0  0
   -2.8471   -1.1430    0.0000 C   0  0  0  0  0  0  0  0  0
   -3.4602   -1.6950    0.0000 N   0  0  0  0  0  0  0  0  0
   -4.2448   -1.4401    0.0000 C   0  0  0  0  0  0  0  0  0
   -4.4164   -0.6331    0.0000 O   0  0  0  0  0  0  0  0  0
   -4.8579   -1.9921    0.0000 N   0  0  0  0  0  0  0  0  0
   -5.6426   -1.7372    0.0000 C   0  0  0  0  0  0  0  0  0
   -6.2557   -2.2892    0.0000 C   0  0  0  0  0  0  0  0  0
   -7.0403   -2.0343    0.0000 C   0  0  0  0  0  0  0  0  0
   -7.2118   -1.2273    0.0000 C   0  0  0  0  0  0  0  0  0
   -7.9964   -0.9723    0.0000 F   0  0  0  0  0  0  0  0  0
   -6.5987   -0.6752    0.0000 C   0  0  0  0  0  0  0  0  0
   -5.8141   -0.9302    0.0000 C   0  0  0  0  0  0  0  0  0
   -3.0187   -0.3360    0.0000 C   0  0  0  0  0  0  0  0  0
   -2.4056    0.2160    0.0000 C   0  0  0  0  0  0  0  0  0
   -1.6209   -0.0389    0.0000 C   0  0  0  0  0  0  0  0  0
   -1.0078    0.5131    0.0000 O   0  0  0  0  0  0  0  0  0
   -1.1794    1.3201    0.0000 C   0  0  0  0  0  0  0  0  0
  1  2  1  0  0  0  0
  2  3  4  0  0  0  0
  2  9  4  0  0  0  0
  3  4  4  0  0  0  0
  4  5  4  0  0  0  0
  5  6  1  0  0  0  0
  5  9  4  0  0  0  0
  6  7  1  0  0  0  0
  6  8  1  0  0  0  0
  9 10  1  0  0  0  0
 10 11  4  0  0  0  0
 10 26  4  0  0  0  0
 11 12  4  0  0  0  0
 12 13  1  0  0  0  0
 12 24  4  0  0  0  0
 13 14  1  0  0  0  0
 14 15  2  0  0  0  0
 14 16  1  0  0  0  0
 16 17  1  0  0  0  0
 17 18  4  0  0  0  0
 17 23  4  0  0  0  0
 18 19  4  0  0  0  0
 19 20  4  0  0  0  0
 20 21  1  0  0  0  0
 20 22  4  0  0  0  0
 22 23  4  0  0  0  0
 24 25  4  0  0  0  0
 25 26  4  0  0  0  0
 26 27  1  0  0  0  0
 27 28  1  0  0  0  0
M  END
>  <Name_Molregno>
603623

>  <5-HT2A>
9.6

>  <5-HT2C>
8.4

$$$$
603624
  Marvin  02231216192D 0   1.00000     0.00000     0

 25 27  0  0  0  0  0  0  0  0999 V2000
   -0.0712    0.4942    0.0000 Br  0  0  0  0  0  0  0  0  0
   -0.0712   -0.3308    0.0000 C   0  0  0  0  0  0  0  0  0
    0.5963   -0.8157    0.0000 C   0  0  0  0  0  0  0  0  0
    0.3413   -1.6003    0.0000 N   0  0  0  0  0  0  0  0  0
   -0.4837   -1.6003    0.0000 N   0  0  0  0  0  0  0  0  0
   -0.9686   -2.2677    0.0000 C   0  0  0  0  0  0  0  0  0
   -0.7386   -0.8157    0.0000 C   0  0  0  0  0  0  0  0  0
   -1.5232   -0.5607    0.0000 C   0  0  0  0  0  0  0  0  0
   -2.1363   -1.1128    0.0000 C   0  0  0  0  0  0  0  0  0
   -2.9209   -0.8578    0.0000 C   0  0  0  0  0  0  0  0  0
   -3.5340   -1.4099    0.0000 N   0  0  0  0  0  0  0  0  0
   -4.3186   -1.1549    0.0000 C   0  0  0  0  0  0  0  0  0
   -4.4902   -0.3480    0.0000 O   0  0  0  0  0  0  0  0  0
   -4.9317   -1.7070    0.0000 N   0  0  0  0  0  0  0  0  0
   -5.7164   -1.4520    0.0000 C   0  0  0  0  0  0  0  0  0
   -6.3295   -2.0041    0.0000 C   0  0  0  0  0  0  0  0  0
   -7.1141   -1.7491    0.0000 C   0  0  0  0  0  0  0  0  0
   -7.2856   -0.9421    0.0000 C   0  0  0  0  0  0  0  0  0
   -8.0702   -0.6872    0.0000 Cl  0  0  0  0  0  0  0  0  0
   -6.6725   -0.3901    0.0000 C   0  0  0  0  0  0  0  0  0
   -5.8879   -0.6450    0.0000 C   0  0  0  0  0  0  0  0  0
   -3.0925   -0.0509    0.0000 C   0  0  0  0  0  0  0  0  0
   -2.4794    0.5012    0.0000 C   0  0  0  0  0  0  0  0  0
   -1.6947    0.2462    0.0000 C   0  0  0  0  0  0  0  0  0
   -1.0816    0.7983    0.0000 O   0  0  0  0  0  0  0  0  0
  1  2  1  0  0  0  0
  2  3  4  0  0  0  0
  2  7  4  0  0  0  0
  3  4  4  0  0  0  0
  4  5  4  0  0  0  0
  5  6  1  0  0  0  0
  5  7  4  0  0  0  0
  7  8  1  0  0  0  0
  8  9  4  0  0  0  0
  8 24  4  0  0  0  0
  9 10  4  0  0  0  0
 10 11  1  0  0  0  0
 10 22  4  0  0  0  0
 11 12  1  0  0  0  0
 12 13  2  0  0  0  0
 12 14  1  0  0  0  0
 14 15  1  0  0  0  0
 15 16  4  0  0  0  0
 15 21  4  0  0  0  0
 16 17  4  0  0  0  0
 17 18  4  0  0  0  0
 18 19  1  0  0  0  0
 18 20  4  0  0  0  0
 20 21  4  0  0  0  0
 22 23  4  0  0  0  0
 23 24  4  0  0  0  0
 24 25  1  0  0  0  0
M  END
>  <Name_Molregno>
603624

>  <5-HT2A>
9.4

>  <5-HT2C>
7.3

$$$$
603625
  Marvin  02231216192D 0   1.00000     0.00000     0

 29 31  0  0  0  0  0  0  0  0999 V2000
   -0.0498    0.5778    0.0000 Br  0  0  0  0  0  0  0  0  0
   -0.0498   -0.2472    0.0000 C   0  0  0  0  0  0  0  0  0
    0.6177   -0.7321    0.0000 C   0  0  0  0  0  0  0  0  0
    0.3627   -1.5168    0.0000 N   0  0  0  0  0  0  0  0  0
   -0.4623   -1.5168    0.0000 N   0  0  0  0  0  0  0  0  0
   -0.9472   -2.1842    0.0000 C   0  0  0  0  0  0  0  0  0
   -0.7172   -0.7321    0.0000 C   0  0  0  0  0  0  0  0  0
   -1.5018   -0.4772    0.0000 C   0  0  0  0  0  0  0  0  0
   -2.1149   -1.0292    0.0000 C   0  0  0  0  0  0  0  0  0
   -2.8996   -0.7743    0.0000 C   0  0  0  0  0  0  0  0  0
   -3.5126   -1.3263    0.0000 N   0  0  0  0  0  0  0  0  0
   -4.2973   -1.0714    0.0000 C   0  0  0  0  0  0  0  0  0
   -4.4688   -0.2644    0.0000 O   0  0  0  0  0  0  0  0  0
   -4.9104   -1.6234    0.0000 N   0  0  0  0  0  0  0  0  0
   -5.6950   -1.3685    0.0000 C   0  0  0  0  0  0  0  0  0
   -6.3081   -1.9205    0.0000 C   0  0  0  0  0  0  0  0  0
   -7.0927   -1.6656    0.0000 C   0  0  0  0  0  0  0  0  0
   -7.2642   -0.8586    0.0000 C   0  0  0  0  0  0  0  0  0
   -8.0488   -0.6037    0.0000 Cl  0  0  0  0  0  0  0  0  0
   -6.6511   -0.3066    0.0000 C   0  0  0  0  0  0  0  0  0
   -5.8665   -0.5615    0.0000 C   0  0  0  0  0  0  0  0  0
   -3.0711    0.0327    0.0000 C   0  0  0  0  0  0  0  0  0
   -2.4580    0.5847    0.0000 C   0  0  0  0  0  0  0  0  0
   -1.6734    0.3298    0.0000 C   0  0  0  0  0  0  0  0  0
   -1.0603    0.8818    0.0000 O   0  0  0  0  0  0  0  0  0
   -1.2318    1.6888    0.0000 C   0  0  0  0  0  0  0  0  0
   -1.4033    2.4957    0.0000 F   0  0  0  0  0  0  0  0  0
   -0.4248    1.8603    0.0000 F   0  0  0  0  0  0  0  0  0
   -2.0388    1.5172    0.0000 F   0  0  0  0  0  0  0  0  0
  1  2  1  0  0  0  0
  2  3  4  0  0  0  0
  2  7  4  0  0  0  0
  3  4  4  0  0  0  0
  4  5  4  0  0  0  0
  5  6  1  0  0  0  0
  5  7  4  0  0  0  0
  7  8  1  0  0  0  0
  8  9  4  0  0  0  0
  8 24  4  0  0  0  0
  9 10  4  0  0  0  0
 10 11  1  0  0  0  0
 10 22  4  0  0  0  0
 11 12  1  0  0  0  0
 12 13  2  0  0  0  0
 12 14  1  0  0  0  0
 14 15  1  0  0  0  0
 15 16  4  0  0  0  0
 15 21  4  0  0  0  0
 16 17  4  0  0  0  0
 17 18  4  0  0  0  0
 18 19  1  0  0  0  0
 18 20  4  0  0  0  0
 20 21  4  0  0  0  0
 22 23  4  0  0  0  0
 23 24  4  0  0  0  0
 24 25  1  0  0  0  0
 25 26  1  0  0  0  0
 26 27  1  0  0  0  0
 26 28  1  0  0  0  0
 26 29  1  0  0  0  0
M  END
>  <Name_Molregno>
603625

>  <5-HT2A>
9.1

>  <5-HT2C>
7.8

$$$$
603626
  Marvin  02231216192D 0   1.00000     0.00000     0

 27 29  0  0  0  0  0  0  0  0999 V2000
   -0.2562   -0.8129    0.0000 Br  0  0  0  0  0  0  0  0  0
   -0.2562   -1.6379    0.0000 C   0  0  0  0  0  0  0  0  0
   -0.9236   -2.1228    0.0000 C   0  0  0  0  0  0  0  0  0
   -0.6687   -2.9074    0.0000 N   0  0  0  0  0  0  0  0  0
    0.1563   -2.9074    0.0000 N   0  0  0  0  0  0  0  0  0
    0.6413   -3.5749    0.0000 C   0  0  0  0  0  0  0  0  0
    0.4113   -2.1228    0.0000 C   0  0  0  0  0  0  0  0  0
    1.1959   -1.8679    0.0000 C   0  0  0  0  0  0  0  0  0
    1.3674   -1.0609    0.0000 C   0  0  0  0  0  0  0  0  0
    2.1520   -0.8059    0.0000 C   0  0  0  0  0  0  0  0  0
    2.3236    0.0010    0.0000 N   0  0  0  0  0  0  0  0  0
    3.1082    0.2560    0.0000 C   0  0  0  0  0  0  0  0  0
    3.7213   -0.2961    0.0000 O   0  0  0  0  0  0  0  0  0
    3.2797    1.0629    0.0000 N   0  0  0  0  0  0  0  0  0
    4.0643    1.3179    0.0000 C   0  0  0  0  0  0  0  0  0
    4.2359    2.1248    0.0000 C   0  0  0  0  0  0  0  0  0
    5.0205    2.3798    0.0000 C   0  0  0  0  0  0  0  0  0
    5.6336    1.8278    0.0000 C   0  0  0  0  0  0  0  0  0
    6.4182    2.0827    0.0000 Cl  0  0  0  0  0  0  0  0  0
    5.4621    1.0208    0.0000 C   0  0  0  0  0  0  0  0  0
    4.6774    0.7658    0.0000 C   0  0  0  0  0  0  0  0  0
    2.7651   -1.3580    0.0000 C   0  0  0  0  0  0  0  0  0
    2.5936   -2.1650    0.0000 C   0  0  0  0  0  0  0  0  0
    1.8090   -2.4199    0.0000 C   0  0  0  0  0  0  0  0  0
    1.6375   -3.2269    0.0000 O   0  0  0  0  0  0  0  0  0
    2.2506   -3.7789    0.0000 C   0  0  0  0  0  0  0  0  0
    3.0352   -3.5240    0.0000 C   0  0  0  0  0  0  0  0  0
  1  2  1  0  0  0  0
  2  3  4  0  0  0  0
  2  7  4  0  0  0  0
  3  4  4  0  0  0  0
  4  5  4  0  0  0  0
  5  6  1  0  0  0  0
  5  7  4  0  0  0  0
  7  8  1  0  0  0  0
  8  9  4  0  0  0  0
  8 24  4  0  0  0  0
  9 10  4  0  0  0  0
 10 11  1  0  0  0  0
 10 22  4  0  0  0  0
 11 12  1  0  0  0  0
 12 13  2  0  0  0  0
 12 14  1  0  0  0  0
 14 15  1  0  0  0  0
 15 16  4  0  0  0  0
 15 21  4  0  0  0  0
 16 17  4  0  0  0  0
 17 18  4  0  0  0  0
 18 19  1  0  0  0  0
 18 20  4  0  0  0  0
 20 21  4  0  0  0  0
 22 23  4  0  0  0  0
 23 24  4  0  0  0  0
 24 25  1  0  0  0  0
 25 26  1  0  0  0  0
 26 27  1  0  0  0  0
M  END
>  <Name_Molregno>
603626

>  <5-HT2A>
9.6

>  <5-HT2C>
8.7

$$$$
603627
  Marvin  02231216192D 0   1.00000     0.00000     0

 28 30  0  0  0  0  0  0  0  0999 V2000
   -5.6911   -0.2498    0.0000 Br  0  0  0  0  0  0  0  0  0
   -5.6911   -1.0748    0.0000 C   0  0  0  0  0  0  0  0  0
   -6.3586   -1.5597    0.0000 C   0  0  0  0  0  0  0  0  0
   -6.1036   -2.3443    0.0000 N   0  0  0  0  0  0  0  0  0
   -5.2786   -2.3443    0.0000 N   0  0  0  0  0  0  0  0  0
   -4.7937   -3.0118    0.0000 C   0  0  0  0  0  0  0  0  0
   -5.0237   -1.5597    0.0000 C   0  0  0  0  0  0  0  0  0
   -4.2391   -1.3048    0.0000 C   0  0  0  0  0  0  0  0  0
   -4.0675   -0.4978    0.0000 C   0  0  0  0  0  0  0  0  0
   -3.2829   -0.2428    0.0000 C   0  0  0  0  0  0  0  0  0
   -3.1114    0.5641    0.0000 N   0  0  0  0  0  0  0  0  0
   -2.3268    0.8191    0.0000 C   0  0  0  0  0  0  0  0  0
   -1.7137    0.2670    0.0000 O   0  0  0  0  0  0  0  0  0
   -2.1553    1.6260    0.0000 N   0  0  0  0  0  0  0  0  0
   -1.3706    1.8810    0.0000 C   0  0  0  0  0  0  0  0  0
   -1.1991    2.6879    0.0000 C   0  0  0  0  0  0  0  0  0
   -0.4145    2.9429    0.0000 C   0  0  0  0  0  0  0  0  0
    0.1986    2.3909    0.0000 C   0  0  0  0  0  0  0  0  0
    0.9832    2.6458    0.0000 Cl  0  0  0  0  0  0  0  0  0
    0.0271    1.5839    0.0000 C   0  0  0  0  0  0  0  0  0
   -0.7575    1.3289    0.0000 C   0  0  0  0  0  0  0  0  0
   -2.6698   -0.7949    0.0000 C   0  0  0  0  0  0  0  0  0
   -2.8414   -1.6019    0.0000 C   0  0  0  0  0  0  0  0  0
   -3.6260   -1.8568    0.0000 C   0  0  0  0  0  0  0  0  0
   -3.7975   -2.6638    0.0000 O   0  0  0  0  0  0  0  0  0
   -3.1844   -3.2158    0.0000 C   0  0  0  0  0  0  0  0  0
   -2.3998   -2.9609    0.0000 C   0  0  0  0  0  0  0  0  0
   -3.3559   -4.0228    0.0000 C   0  0  0  0  0  0  0  0  0
  1  2  1  0  0  0  0
  2  3  4  0  0  0  0
  2  7  4  0  0  0  0
  3  4  4  0  0  0  0
  4  5  4  0  0  0  0
  5  6  1  0  0  0  0
  5  7  4  0  0  0  0
  7  8  1  0  0  0  0
  8  9  4  0  0  0  0
  8 24  4  0  0  0  0
  9 10  4  0  0  0  0
 10 11  1  0  0  0  0
 10 22  4  0  0  0  0
 11 12  1  0  0  0  0
 12 13  2  0  0  0  0
 12 14  1  0  0  0  0
 14 15  1  0  0  0  0
 15 16  4  0  0  0  0
 15 21  4  0  0  0  0
 16 17  4  0  0  0  0
 17 18  4  0  0  0  0
 18 19  1  0  0  0  0
 18 20  4  0  0  0  0
 20 21  4  0  0  0  0
 22 23  4  0  0  0  0
 23 24  4  0  0  0  0
 24 25  1  0  0  0  0
 25 26  1  0  0  0  0
 26 27  1  0  0  0  0
 26 28  1  0  0  0  0
M  END
>  <Name_Molregno>
603627

>  <5-HT2A>
9.5

>  <5-HT2C>
8

$$$$
603697
  Marvin  02231216192D 0   1.00000     0.00000     0

 32 35  0  0  0  0  0  0  0  0999 V2000
    2.7506   -2.0490    0.0000 Br  0  0  0  0  0  0  0  0  0
    2.7506   -2.8740    0.0000 C   0  0  0  0  0  0  0  0  0
    3.4180   -3.3590    0.0000 C   0  0  0  0  0  0  0  0  0
    3.1631   -4.1436    0.0000 N   0  0  0  0  0  0  0  0  0
    2.3381   -4.1436    0.0000 N   0  0  0  0  0  0  0  0  0
    1.8531   -4.8110    0.0000 C   0  0  0  0  0  0  0  0  0
    2.0831   -3.3590    0.0000 C   0  0  0  0  0  0  0  0  0
    1.2985   -3.1040    0.0000 C   0  0  0  0  0  0  0  0  0
    0.6854   -3.6561    0.0000 C   0  0  0  0  0  0  0  0  0
   -0.0992   -3.4011    0.0000 C   0  0  0  0  0  0  0  0  0
   -0.7123   -3.9531    0.0000 N   0  0  0  0  0  0  0  0  0
   -1.4969   -3.6982    0.0000 C   0  0  0  0  0  0  0  0  0
   -1.6685   -2.8912    0.0000 O   0  0  0  0  0  0  0  0  0
   -2.1100   -4.2502    0.0000 N   0  0  0  0  0  0  0  0  0
   -2.8946   -3.9953    0.0000 C   0  0  0  0  0  0  0  0  0
   -3.5077   -4.5473    0.0000 C   0  0  0  0  0  0  0  0  0
   -4.2924   -4.2924    0.0000 C   0  0  0  0  0  0  0  0  0
   -4.4639   -3.4854    0.0000 C   0  0  0  0  0  0  0  0  0
   -5.2485   -3.2305    0.0000 Cl  0  0  0  0  0  0  0  0  0
   -3.8508   -2.9334    0.0000 C   0  0  0  0  0  0  0  0  0
   -3.0662   -3.1883    0.0000 C   0  0  0  0  0  0  0  0  0
   -0.2707   -2.5941    0.0000 C   0  0  0  0  0  0  0  0  0
    0.3424   -2.0421    0.0000 C   0  0  0  0  0  0  0  0  0
    1.1270   -2.2970    0.0000 C   0  0  0  0  0  0  0  0  0
    1.7401   -1.7450    0.0000 O   0  0  0  0  0  0  0  0  0
    1.5685   -0.9380    0.0000 C   0  0  0  0  0  0  0  0  0
    2.1816   -0.3860    0.0000 C   0  0  0  0  0  0  0  0  0
    2.0101    0.4210    0.0000 C   0  0  0  0  0  0  0  0  0
    2.6232    0.9730    0.0000 C   0  0  0  0  0  0  0  0  0
    3.4078    0.7181    0.0000 C   0  0  0  0  0  0  0  0  0
    3.5794   -0.0889    0.0000 C   0  0  0  0  0  0  0  0  0
    2.9663   -0.6409    0.0000 C   0  0  0  0  0  0  0  0  0
  1  2  1  0  0  0  0
  2  3  4  0  0  0  0
  2  7  4  0  0  0  0
  3  4  4  0  0  0  0
  4  5  4  0  0  0  0
  5  6  1  0  0  0  0
  5  7  4  0  0  0  0
  7  8  1  0  0  0  0
  8  9  4  0  0  0  0
  8 24  4  0  0  0  0
  9 10  4  0  0  0  0
 10 11  1  0  0  0  0
 10 22  4  0  0  0  0
 11 12  1  0  0  0  0
 12 13  2  0  0  0  0
 12 14  1  0  0  0  0
 14 15  1  0  0  0  0
 15 16  4  0  0  0  0
 15 21  4  0  0  0  0
 16 17  4  0  0  0  0
 17 18  4  0  0  0  0
 18 19  1  0  0  0  0
 18 20  4  0  0  0  0
 20 21  4  0  0  0  0
 22 23  4  0  0  0  0
 23 24  4  0  0  0  0
 24 25  1  0  0  0  0
 25 26  1  0  0  0  0
 26 27  1  0  0  0  0
 27 28  4  0  0  0  0
 27 32  4  0  0  0  0
 28 29  4  0  0  0  0
 29 30  4  0  0  0  0
 30 31  4  0  0  0  0
 31 32  4  0  0  0  0
M  END
>  <Name_Molregno>
603697

>  <5-HT2A>
8.3

>  <5-HT2C>
6.8

$$$$
603698
  Marvin  02231216192D 0   1.00000     0.00000     0

 33 36  0  0  0  0  0  0  0  0999 V2000
    2.7855   -2.1806    0.0000 Br  0  0  0  0  0  0  0  0  0
    2.7855   -3.0056    0.0000 C   0  0  0  0  0  0  0  0  0
    3.4529   -3.4906    0.0000 C   0  0  0  0  0  0  0  0  0
    3.1980   -4.2752    0.0000 N   0  0  0  0  0  0  0  0  0
    2.3730   -4.2752    0.0000 N   0  0  0  0  0  0  0  0  0
    1.8880   -4.9426    0.0000 C   0  0  0  0  0  0  0  0  0
    2.1180   -3.4906    0.0000 C   0  0  0  0  0  0  0  0  0
    1.3334   -3.2356    0.0000 C   0  0  0  0  0  0  0  0  0
    0.7203   -3.7877    0.0000 C   0  0  0  0  0  0  0  0  0
   -0.0643   -3.5327    0.0000 C   0  0  0  0  0  0  0  0  0
   -0.6774   -4.0848    0.0000 N   0  0  0  0  0  0  0  0  0
   -1.4620   -3.8298    0.0000 C   0  0  0  0  0  0  0  0  0
   -1.6335   -3.0228    0.0000 O   0  0  0  0  0  0  0  0  0
   -2.0751   -4.3818    0.0000 N   0  0  0  0  0  0  0  0  0
   -2.8597   -4.1269    0.0000 C   0  0  0  0  0  0  0  0  0
   -3.4728   -4.6789    0.0000 C   0  0  0  0  0  0  0  0  0
   -4.2575   -4.4240    0.0000 C   0  0  0  0  0  0  0  0  0
   -4.4290   -3.6170    0.0000 C   0  0  0  0  0  0  0  0  0
   -5.2136   -3.3621    0.0000 Cl  0  0  0  0  0  0  0  0  0
   -3.8159   -3.0650    0.0000 C   0  0  0  0  0  0  0  0  0
   -3.0313   -3.3199    0.0000 C   0  0  0  0  0  0  0  0  0
   -0.2358   -2.7257    0.0000 C   0  0  0  0  0  0  0  0  0
    0.3773   -2.1737    0.0000 C   0  0  0  0  0  0  0  0  0
    1.1619   -2.4287    0.0000 C   0  0  0  0  0  0  0  0  0
    1.7750   -1.8766    0.0000 O   0  0  0  0  0  0  0  0  0
    1.6035   -1.0696    0.0000 C   0  0  0  0  0  0  0  0  0
    2.2165   -0.5176    0.0000 C   0  0  0  0  0  0  0  0  0
    2.0450    0.2894    0.0000 C   0  0  0  0  0  0  0  0  0
    2.6581    0.8414    0.0000 C   0  0  0  0  0  0  0  0  0
    3.4427    0.5865    0.0000 C   0  0  0  0  0  0  0  0  0
    4.0558    1.1385    0.0000 Cl  0  0  0  0  0  0  0  0  0
    3.6143   -0.2205    0.0000 C   0  0  0  0  0  0  0  0  0
    3.0012   -0.7726    0.0000 C   0  0  0  0  0  0  0  0  0
  1  2  1  0  0  0  0
  2  3  4  0  0  0  0
  2  7  4  0  0  0  0
  3  4  4  0  0  0  0
  4  5  4  0  0  0  0
  5  6  1  0  0  0  0
  5  7  4  0  0  0  0
  7  8  1  0  0  0  0
  8  9  4  0  0  0  0
  8 24  4  0  0  0  0
  9 10  4  0  0  0  0
 10 11  1  0  0  0  0
 10 22  4  0  0  0  0
 11 12  1  0  0  0  0
 12 13  2  0  0  0  0
 12 14  1  0  0  0  0
 14 15  1  0  0  0  0
 15 16  4  0  0  0  0
 15 21  4  0  0  0  0
 16 17  4  0  0  0  0
 17 18  4  0  0  0  0
 18 19  1  0  0  0  0
 18 20  4  0  0  0  0
 20 21  4  0  0  0  0
 22 23  4  0  0  0  0
 23 24  4  0  0  0  0
 24 25  1  0  0  0  0
 25 26  1  0  0  0  0
 26 27  1  0  0  0  0
 27 28  4  0  0  0  0
 27 33  4  0  0  0  0
 28 29  4  0  0  0  0
 29 30  4  0  0  0  0
 30 31  1  0  0  0  0
 30 32  4  0  0  0  0
 32 33  4  0  0  0  0
M  END
>  <Name_Molregno>
603698

>  <5-HT2A>
7.7

>  <5-HT2C>
6.6

$$$$
603699
  Marvin  02231216192D 0   1.00000     0.00000     0

 33 36  0  0  0  0  0  0  0  0999 V2000
    4.0316    1.1310    0.0000 Br  0  0  0  0  0  0  0  0  0
    4.0316    0.3060    0.0000 C   0  0  0  0  0  0  0  0  0
    4.6991   -0.1790    0.0000 C   0  0  0  0  0  0  0  0  0
    4.4441   -0.9636    0.0000 N   0  0  0  0  0  0  0  0  0
    3.6191   -0.9636    0.0000 N   0  0  0  0  0  0  0  0  0
    3.1342   -1.6310    0.0000 C   0  0  0  0  0  0  0  0  0
    3.3642   -0.1790    0.0000 C   0  0  0  0  0  0  0  0  0
    2.5796    0.0760    0.0000 C   0  0  0  0  0  0  0  0  0
    2.4080    0.8829    0.0000 C   0  0  0  0  0  0  0  0  0
    1.6234    1.1379    0.0000 C   0  0  0  0  0  0  0  0  0
    1.4519    1.9448    0.0000 N   0  0  0  0  0  0  0  0  0
    2.0650    2.4969    0.0000 C   0  0  0  0  0  0  0  0  0
    1.8935    3.3039    0.0000 O   0  0  0  0  0  0  0  0  0
    2.8496    2.2419    0.0000 N   0  0  0  0  0  0  0  0  0
    3.4627    2.7940    0.0000 C   0  0  0  0  0  0  0  0  0
    3.2912    3.6009    0.0000 C   0  0  0  0  0  0  0  0  0
    3.9043    4.1530    0.0000 C   0  0  0  0  0  0  0  0  0
    4.6889    3.8980    0.0000 C   0  0  0  0  0  0  0  0  0
    5.3020    4.4501    0.0000 Cl  0  0  0  0  0  0  0  0  0
    4.8604    3.0911    0.0000 C   0  0  0  0  0  0  0  0  0
    4.2473    2.5390    0.0000 C   0  0  0  0  0  0  0  0  0
    1.0103    0.5858    0.0000 C   0  0  0  0  0  0  0  0  0
    1.1819   -0.2211    0.0000 C   0  0  0  0  0  0  0  0  0
    1.9665   -0.4761    0.0000 C   0  0  0  0  0  0  0  0  0
    2.1380   -1.2830    0.0000 O   0  0  0  0  0  0  0  0  0
    1.5249   -1.8351    0.0000 C   0  0  0  0  0  0  0  0  0
    1.6964   -2.6420    0.0000 C   0  0  0  0  0  0  0  0  0
    1.0833   -3.1941    0.0000 C   0  0  0  0  0  0  0  0  0
    1.2549   -4.0010    0.0000 C   0  0  0  0  0  0  0  0  0
    0.6418   -4.5531    0.0000 C   0  0  0  0  0  0  0  0  0
   -0.1428   -4.2981    0.0000 C   0  0  0  0  0  0  0  0  0
   -0.3144   -3.4912    0.0000 C   0  0  0  0  0  0  0  0  0
    0.2987   -2.9391    0.0000 C   0  0  0  0  0  0  0  0  0
  1  2  1  0  0  0  0
  2  3  4  0  0  0  0
  2  7  4  0  0  0  0
  3  4  4  0  0  0  0
  4  5  4  0  0  0  0
  5  6  1  0  0  0  0
  5  7  4  0  0  0  0
  7  8  1  0  0  0  0
  8  9  4  0  0  0  0
  8 24  4  0  0  0  0
  9 10  4  0  0  0  0
 10 11  1  0  0  0  0
 10 22  4  0  0  0  0
 11 12  1  0  0  0  0
 12 13  2  0  0  0  0
 12 14  1  0  0  0  0
 14 15  1  0  0  0  0
 15 16  4  0  0  0  0
 15 21  4  0  0  0  0
 16 17  4  0  0  0  0
 17 18  4  0  0  0  0
 18 19  1  0  0  0  0
 18 20  4  0  0  0  0
 20 21  4  0  0  0  0
 22 23  4  0  0  0  0
 23 24  4  0  0  0  0
 24 25  1  0  0  0  0
 25 26  1  0  0  0  0
 26 27  1  0  0  0  0
 27 28  1  0  0  0  0
 28 29  4  0  0  0  0
 28 33  4  0  0  0  0
 29 30  4  0  0  0  0
 30 31  4  0  0  0  0
 31 32  4  0  0  0  0
 32 33  4  0  0  0  0
M  END
>  <Name_Molregno>
603699

>  <5-HT2A>
8.2

>  <5-HT2C>
6.1

$$$$
603700
  Marvin  02231216192D 0   1.00000     0.00000     0

 26 28  0  0  0  0  0  0  0  0999 V2000
   -0.0919    0.6283    0.0000 Cl  0  0  0  0  0  0  0  0  0
   -0.0919   -0.1967    0.0000 C   0  0  0  0  0  0  0  0  0
    0.5755   -0.6816    0.0000 C   0  0  0  0  0  0  0  0  0
    0.3206   -1.4662    0.0000 N   0  0  0  0  0  0  0  0  0
   -0.5044   -1.4662    0.0000 N   0  0  0  0  0  0  0  0  0
   -0.9894   -2.1337    0.0000 C   0  0  0  0  0  0  0  0  0
   -0.7594   -0.6816    0.0000 C   0  0  0  0  0  0  0  0  0
   -1.5440   -0.4267    0.0000 C   0  0  0  0  0  0  0  0  0
   -2.1571   -0.9787    0.0000 C   0  0  0  0  0  0  0  0  0
   -2.9417   -0.7238    0.0000 C   0  0  0  0  0  0  0  0  0
   -3.5548   -1.2758    0.0000 N   0  0  0  0  0  0  0  0  0
   -4.3394   -1.0209    0.0000 C   0  0  0  0  0  0  0  0  0
   -4.5110   -0.2139    0.0000 O   0  0  0  0  0  0  0  0  0
   -4.9525   -1.5729    0.0000 N   0  0  0  0  0  0  0  0  0
   -5.7371   -1.3180    0.0000 C   0  0  0  0  0  0  0  0  0
   -6.3502   -1.8700    0.0000 C   0  0  0  0  0  0  0  0  0
   -7.1349   -1.6151    0.0000 C   0  0  0  0  0  0  0  0  0
   -7.3064   -0.8081    0.0000 C   0  0  0  0  0  0  0  0  0
   -8.0910   -0.5531    0.0000 Cl  0  0  0  0  0  0  0  0  0
   -6.6933   -0.2560    0.0000 C   0  0  0  0  0  0  0  0  0
   -5.9087   -0.5110    0.0000 C   0  0  0  0  0  0  0  0  0
   -3.1132    0.0832    0.0000 C   0  0  0  0  0  0  0  0  0
   -2.5001    0.6352    0.0000 C   0  0  0  0  0  0  0  0  0
   -1.7155    0.3803    0.0000 C   0  0  0  0  0  0  0  0  0
   -1.1024    0.9323    0.0000 O   0  0  0  0  0  0  0  0  0
   -1.2740    1.7393    0.0000 C   0  0  0  0  0  0  0  0  0
  1  2  1  0  0  0  0
  2  3  4  0  0  0  0
  2  7  4  0  0  0  0
  3  4  4  0  0  0  0
  4  5  4  0  0  0  0
  5  6  1  0  0  0  0
  5  7  4  0  0  0  0
  7  8  1  0  0  0  0
  8  9  4  0  0  0  0
  8 24  4  0  0  0  0
  9 10  4  0  0  0  0
 10 11  1  0  0  0  0
 10 22  4  0  0  0  0
 11 12  1  0  0  0  0
 12 13  2  0  0  0  0
 12 14  1  0  0  0  0
 14 15  1  0  0  0  0
 15 16  4  0  0  0  0
 15 21  4  0  0  0  0
 16 17  4  0  0  0  0
 17 18  4  0  0  0  0
 18 19  1  0  0  0  0
 18 20  4  0  0  0  0
 20 21  4  0  0  0  0
 22 23  4  0  0  0  0
 23 24  4  0  0  0  0
 24 25  1  0  0  0  0
 25 26  1  0  0  0  0
M  END
>  <Name_Molregno>
603700

>  <5-HT2A>
9.8

>  <5-HT2C>
8

$$$$
603812
  Marvin  02231216192D 0   1.00000     0.00000     0

 25 27  0  0  0  0  0  0  0  0999 V2000
    5.9528    3.5411    0.0000 Cl  0  0  0  0  0  0  0  0  0
    5.9528    2.7161    0.0000 C   0  0  0  0  0  0  0  0  0
    6.6672    2.3036    0.0000 C   0  0  0  0  0  0  0  0  0
    6.6672    1.4786    0.0000 C   0  0  0  0  0  0  0  0  0
    5.9528    1.0661    0.0000 C   0  0  0  0  0  0  0  0  0
    5.9528    0.2411    0.0000 N   0  0  0  0  0  0  0  0  0
    5.2383   -0.1714    0.0000 C   0  0  0  0  0  0  0  0  0
    4.5238    0.2411    0.0000 O   0  0  0  0  0  0  0  0  0
    5.2383   -0.9964    0.0000 N   0  0  0  0  0  0  0  0  0
    4.5238   -1.4089    0.0000 C   0  0  0  0  0  0  0  0  0
    4.5238   -2.2339    0.0000 C   0  0  0  0  0  0  0  0  0
    3.8093   -2.6464    0.0000 C   0  0  0  0  0  0  0  0  0
    3.8093   -3.4714    0.0000 C   0  0  0  0  0  0  0  0  0
    4.4768   -3.9563    0.0000 N   0  0  0  0  0  0  0  0  0
    4.2218   -4.7410    0.0000 N   0  0  0  0  0  0  0  0  0
    3.3968   -4.7410    0.0000 C   0  0  0  0  0  0  0  0  0
    3.1419   -3.9563    0.0000 C   0  0  0  0  0  0  0  0  0
    5.2614   -3.7014    0.0000 C   0  0  0  0  0  0  0  0  0
    3.0949   -2.2339    0.0000 C   0  0  0  0  0  0  0  0  0
    2.3804   -2.6464    0.0000 O   0  0  0  0  0  0  0  0  0
    1.6659   -2.2339    0.0000 C   0  0  0  0  0  0  0  0  0
    3.0949   -1.4089    0.0000 C   0  0  0  0  0  0  0  0  0
    3.8093   -0.9964    0.0000 C   0  0  0  0  0  0  0  0  0
    5.2383    1.4786    0.0000 C   0  0  0  0  0  0  0  0  0
    5.2383    2.3036    0.0000 C   0  0  0  0  0  0  0  0  0
  1  2  1  0  0  0  0
  2  3  4  0  0  0  0
  2 25  4  0  0  0  0
  3  4  4  0  0  0  0
  4  5  4  0  0  0  0
  5  6  1  0  0  0  0
  5 24  4  0  0  0  0
  6  7  1  0  0  0  0
  7  8  2  0  0  0  0
  7  9  1  0  0  0  0
  9 10  1  0  0  0  0
 10 11  4  0  0  0  0
 10 23  4  0  0  0  0
 11 12  4  0  0  0  0
 12 13  1  0  0  0  0
 12 19  4  0  0  0  0
 13 14  4  0  0  0  0
 13 17  4  0  0  0  0
 14 15  4  0  0  0  0
 14 18  1  0  0  0  0
 15 16  4  0  0  0  0
 16 17  4  0  0  0  0
 19 20  1  0  0  0  0
 19 22  4  0  0  0  0
 20 21  1  0  0  0  0
 22 23  4  0  0  0  0
 24 25  4  0  0  0  0
M  END
>  <Name_Molregno>
603812

>  <5-HT2A>
8.8

>  <5-HT2C>
6.8

$$$$
603813
  Marvin  02231216192D 0   1.00000     0.00000     0

 27 29  0  0  0  0  0  0  0  0999 V2000
   -0.0942    0.3731    0.0000 Br  0  0  0  0  0  0  0  0  0
   -0.0942   -0.4519    0.0000 C   0  0  0  0  0  0  0  0  0
    0.5733   -0.9368    0.0000 C   0  0  0  0  0  0  0  0  0
    0.3183   -1.7214    0.0000 N   0  0  0  0  0  0  0  0  0
   -0.5067   -1.7214    0.0000 N   0  0  0  0  0  0  0  0  0
   -0.9916   -2.3889    0.0000 C   0  0  0  0  0  0  0  0  0
   -0.7616   -0.9368    0.0000 C   0  0  0  0  0  0  0  0  0
   -1.5462   -0.6819    0.0000 C   0  0  0  0  0  0  0  0  0
   -2.1593   -1.2339    0.0000 C   0  0  0  0  0  0  0  0  0
   -2.9439   -0.9790    0.0000 C   0  0  0  0  0  0  0  0  0
   -3.5570   -1.5310    0.0000 N   0  0  0  0  0  0  0  0  0
   -4.3416   -1.2761    0.0000 C   0  0  0  0  0  0  0  0  0
   -4.5132   -0.4691    0.0000 O   0  0  0  0  0  0  0  0  0
   -4.9547   -1.8281    0.0000 N   0  0  0  0  0  0  0  0  0
   -5.7394   -1.5731    0.0000 C   0  0  0  0  0  0  0  0  0
   -6.3525   -2.1252    0.0000 C   0  0  0  0  0  0  0  0  0
   -7.1371   -1.8702    0.0000 C   0  0  0  0  0  0  0  0  0
   -7.3086   -1.0633    0.0000 C   0  0  0  0  0  0  0  0  0
   -8.0932   -0.8083    0.0000 Cl  0  0  0  0  0  0  0  0  0
   -6.6955   -0.5112    0.0000 C   0  0  0  0  0  0  0  0  0
   -5.9109   -0.7662    0.0000 C   0  0  0  0  0  0  0  0  0
   -5.2978   -0.2141    0.0000 Cl  0  0  0  0  0  0  0  0  0
   -3.1155   -0.1720    0.0000 C   0  0  0  0  0  0  0  0  0
   -2.5024    0.3800    0.0000 C   0  0  0  0  0  0  0  0  0
   -1.7177    0.1251    0.0000 C   0  0  0  0  0  0  0  0  0
   -1.1046    0.6771    0.0000 O   0  0  0  0  0  0  0  0  0
   -1.2762    1.4841    0.0000 C   0  0  0  0  0  0  0  0  0
  1  2  1  0  0  0  0
  2  3  4  0  0  0  0
  2  7  4  0  0  0  0
  3  4  4  0  0  0  0
  4  5  4  0  0  0  0
  5  6  1  0  0  0  0
  5  7  4  0  0  0  0
  7  8  1  0  0  0  0
  8  9  4  0  0  0  0
  8 25  4  0  0  0  0
  9 10  4  0  0  0  0
 10 11  1  0  0  0  0
 10 23  4  0  0  0  0
 11 12  1  0  0  0  0
 12 13  2  0  0  0  0
 12 14  1  0  0  0  0
 14 15  1  0  0  0  0
 15 16  4  0  0  0  0
 15 21  4  0  0  0  0
 16 17  4  0  0  0  0
 17 18  4  0  0  0  0
 18 19  1  0  0  0  0
 18 20  4  0  0  0  0
 20 21  4  0  0  0  0
 21 22  1  0  0  0  0
 23 24  4  0  0  0  0
 24 25  4  0  0  0  0
 25 26  1  0  0  0  0
 26 27  1  0  0  0  0
M  END
>  <Name_Molregno>
603813

>  <5-HT2A>
9.7

>  <5-HT2C>
7.6

$$$$
603814
  Marvin  02231216192D 0   1.00000     0.00000     0

 27 29  0  0  0  0  0  0  0  0999 V2000
   -0.0880    0.6423    0.0000 Br  0  0  0  0  0  0  0  0  0
   -0.0880   -0.1827    0.0000 C   0  0  0  0  0  0  0  0  0
    0.5794   -0.6676    0.0000 C   0  0  0  0  0  0  0  0  0
    0.3245   -1.4522    0.0000 N   0  0  0  0  0  0  0  0  0
   -0.5005   -1.4522    0.0000 N   0  0  0  0  0  0  0  0  0
   -0.9854   -2.1197    0.0000 C   0  0  0  0  0  0  0  0  0
   -0.7554   -0.6676    0.0000 C   0  0  0  0  0  0  0  0  0
   -1.5401   -0.4127    0.0000 C   0  0  0  0  0  0  0  0  0
   -2.1532   -0.9647    0.0000 C   0  0  0  0  0  0  0  0  0
   -2.9378   -0.7098    0.0000 C   0  0  0  0  0  0  0  0  0
   -3.5509   -1.2618    0.0000 N   0  0  0  0  0  0  0  0  0
   -4.3355   -1.0068    0.0000 C   0  0  0  0  0  0  0  0  0
   -4.5070   -0.1999    0.0000 O   0  0  0  0  0  0  0  0  0
   -4.9486   -1.5589    0.0000 N   0  0  0  0  0  0  0  0  0
   -5.7332   -1.3039    0.0000 C   0  0  0  0  0  0  0  0  0
   -6.3463   -1.8560    0.0000 C   0  0  0  0  0  0  0  0  0
   -7.1309   -1.6010    0.0000 C   0  0  0  0  0  0  0  0  0
   -7.7440   -2.1531    0.0000 F   0  0  0  0  0  0  0  0  0
   -7.3025   -0.7941    0.0000 C   0  0  0  0  0  0  0  0  0
   -6.6894   -0.2420    0.0000 C   0  0  0  0  0  0  0  0  0
   -6.8609    0.5649    0.0000 F   0  0  0  0  0  0  0  0  0
   -5.9047   -0.4970    0.0000 C   0  0  0  0  0  0  0  0  0
   -3.1093    0.0972    0.0000 C   0  0  0  0  0  0  0  0  0
   -2.4962    0.6492    0.0000 C   0  0  0  0  0  0  0  0  0
   -1.7116    0.3943    0.0000 C   0  0  0  0  0  0  0  0  0
   -1.0985    0.9463    0.0000 O   0  0  0  0  0  0  0  0  0
   -1.2700    1.7533    0.0000 C   0  0  0  0  0  0  0  0  0
  1  2  1  0  0  0  0
  2  3  4  0  0  0  0
  2  7  4  0  0  0  0
  3  4  4  0  0  0  0
  4  5  4  0  0  0  0
  5  6  1  0  0  0  0
  5  7  4  0  0  0  0
  7  8  1  0  0  0  0
  8  9  4  0  0  0  0
  8 25  4  0  0  0  0
  9 10  4  0  0  0  0
 10 11  1  0  0  0  0
 10 23  4  0  0  0  0
 11 12  1  0  0  0  0
 12 13  2  0  0  0  0
 12 14  1  0  0  0  0
 14 15  1  0  0  0  0
 15 16  4  0  0  0  0
 15 22  4  0  0  0  0
 16 17  4  0  0  0  0
 17 18  1  0  0  0  0
 17 19  4  0  0  0  0
 19 20  4  0  0  0  0
 20 21  1  0  0  0  0
 20 22  4  0  0  0  0
 23 24  4  0  0  0  0
 24 25  4  0  0  0  0
 25 26  1  0  0  0  0
 26 27  1  0  0  0  0
M  END
>  <Name_Molregno>
603814

>  <5-HT2A>
9.5

>  <5-HT2C>
7.8

$$$$
603815
  Marvin  02231216192D 0   1.00000     0.00000     0

 27 29  0  0  0  0  0  0  0  0999 V2000
   -0.0942    0.3731    0.0000 Br  0  0  0  0  0  0  0  0  0
   -0.0942   -0.4519    0.0000 C   0  0  0  0  0  0  0  0  0
    0.5733   -0.9368    0.0000 C   0  0  0  0  0  0  0  0  0
    0.3183   -1.7214    0.0000 N   0  0  0  0  0  0  0  0  0
   -0.5067   -1.7214    0.0000 N   0  0  0  0  0  0  0  0  0
   -0.9916   -2.3889    0.0000 C   0  0  0  0  0  0  0  0  0
   -0.7616   -0.9368    0.0000 C   0  0  0  0  0  0  0  0  0
   -1.5462   -0.6819    0.0000 C   0  0  0  0  0  0  0  0  0
   -2.1593   -1.2339    0.0000 C   0  0  0  0  0  0  0  0  0
   -2.9439   -0.9790    0.0000 C   0  0  0  0  0  0  0  0  0
   -3.5570   -1.5310    0.0000 N   0  0  0  0  0  0  0  0  0
   -4.3416   -1.2761    0.0000 C   0  0  0  0  0  0  0  0  0
   -4.5132   -0.4691    0.0000 O   0  0  0  0  0  0  0  0  0
   -4.9547   -1.8281    0.0000 N   0  0  0  0  0  0  0  0  0
   -5.7394   -1.5731    0.0000 C   0  0  0  0  0  0  0  0  0
   -6.3525   -2.1252    0.0000 C   0  0  0  0  0  0  0  0  0
   -7.1371   -1.8702    0.0000 C   0  0  0  0  0  0  0  0  0
   -7.3086   -1.0633    0.0000 C   0  0  0  0  0  0  0  0  0
   -8.0932   -0.8083    0.0000 F   0  0  0  0  0  0  0  0  0
   -6.6955   -0.5112    0.0000 C   0  0  0  0  0  0  0  0  0
   -5.9109   -0.7662    0.0000 C   0  0  0  0  0  0  0  0  0
   -5.2978   -0.2141    0.0000 F   0  0  0  0  0  0  0  0  0
   -3.1155   -0.1720    0.0000 C   0  0  0  0  0  0  0  0  0
   -2.5024    0.3800    0.0000 C   0  0  0  0  0  0  0  0  0
   -1.7177    0.1251    0.0000 C   0  0  0  0  0  0  0  0  0
   -1.1046    0.6771    0.0000 O   0  0  0  0  0  0  0  0  0
   -1.2762    1.4841    0.0000 C   0  0  0  0  0  0  0  0  0
  1  2  1  0  0  0  0
  2  3  4  0  0  0  0
  2  7  4  0  0  0  0
  3  4  4  0  0  0  0
  4  5  4  0  0  0  0
  5  6  1  0  0  0  0
  5  7  4  0  0  0  0
  7  8  1  0  0  0  0
  8  9  4  0  0  0  0
  8 25  4  0  0  0  0
  9 10  4  0  0  0  0
 10 11  1  0  0  0  0
 10 23  4  0  0  0  0
 11 12  1  0  0  0  0
 12 13  2  0  0  0  0
 12 14  1  0  0  0  0
 14 15  1  0  0  0  0
 15 16  4  0  0  0  0
 15 21  4  0  0  0  0
 16 17  4  0  0  0  0
 17 18  4  0  0  0  0
 18 19  1  0  0  0  0
 18 20  4  0  0  0  0
 20 21  4  0  0  0  0
 21 22  1  0  0  0  0
 23 24  4  0  0  0  0
 24 25  4  0  0  0  0
 25 26  1  0  0  0  0
 26 27  1  0  0  0  0
M  END
>  <Name_Molregno>
603815

>  <5-HT2A>
9.24

>  <5-HT2C>
6.88

$$$$
603816
  Marvin  02231216192D 0   1.00000     0.00000     0

 27 29  0  0  0  0  0  0  0  0999 V2000
   -0.0942    0.3731    0.0000 Cl  0  0  0  0  0  0  0  0  0
   -0.0942   -0.4519    0.0000 C   0  0  0  0  0  0  0  0  0
    0.5733   -0.9368    0.0000 C   0  0  0  0  0  0  0  0  0
    0.3183   -1.7214    0.0000 N   0  0  0  0  0  0  0  0  0
   -0.5067   -1.7214    0.0000 N   0  0  0  0  0  0  0  0  0
   -0.9916   -2.3889    0.0000 C   0  0  0  0  0  0  0  0  0
   -0.7616   -0.9368    0.0000 C   0  0  0  0  0  0  0  0  0
   -1.5462   -0.6819    0.0000 C   0  0  0  0  0  0  0  0  0
   -2.1593   -1.2339    0.0000 C   0  0  0  0  0  0  0  0  0
   -2.9439   -0.9790    0.0000 C   0  0  0  0  0  0  0  0  0
   -3.5570   -1.5310    0.0000 N   0  0  0  0  0  0  0  0  0
   -4.3416   -1.2761    0.0000 C   0  0  0  0  0  0  0  0  0
   -4.5132   -0.4691    0.0000 O   0  0  0  0  0  0  0  0  0
   -4.9547   -1.8281    0.0000 N   0  0  0  0  0  0  0  0  0
   -5.7394   -1.5731    0.0000 C   0  0  0  0  0  0  0  0  0
   -6.3525   -2.1252    0.0000 C   0  0  0  0  0  0  0  0  0
   -7.1371   -1.8702    0.0000 C   0  0  0  0  0  0  0  0  0
   -7.3086   -1.0633    0.0000 C   0  0  0  0  0  0  0  0  0
   -8.0932   -0.8083    0.0000 F   0  0  0  0  0  0  0  0  0
   -6.6955   -0.5112    0.0000 C   0  0  0  0  0  0  0  0  0
   -5.9109   -0.7662    0.0000 C   0  0  0  0  0  0  0  0  0
   -5.2978   -0.2141    0.0000 F   0  0  0  0  0  0  0  0  0
   -3.1155   -0.1720    0.0000 C   0  0  0  0  0  0  0  0  0
   -2.5024    0.3800    0.0000 C   0  0  0  0  0  0  0  0  0
   -1.7177    0.1251    0.0000 C   0  0  0  0  0  0  0  0  0
   -1.1046    0.6771    0.0000 O   0  0  0  0  0  0  0  0  0
   -1.2762    1.4841    0.0000 C   0  0  0  0  0  0  0  0  0
  1  2  1  0  0  0  0
  2  3  4  0  0  0  0
  2  7  4  0  0  0  0
  3  4  4  0  0  0  0
  4  5  4  0  0  0  0
  5  6  1  0  0  0  0
  5  7  4  0  0  0  0
  7  8  1  0  0  0  0
  8  9  4  0  0  0  0
  8 25  4  0  0  0  0
  9 10  4  0  0  0  0
 10 11  1  0  0  0  0
 10 23  4  0  0  0  0
 11 12  1  0  0  0  0
 12 13  2  0  0  0  0
 12 14  1  0  0  0  0
 14 15  1  0  0  0  0
 15 16  4  0  0  0  0
 15 21  4  0  0  0  0
 16 17  4  0  0  0  0
 17 18  4  0  0  0  0
 18 19  1  0  0  0  0
 18 20  4  0  0  0  0
 20 21  4  0  0  0  0
 21 22  1  0  0  0  0
 23 24  4  0  0  0  0
 24 25  4  0  0  0  0
 25 26  1  0  0  0  0
 26 27  1  0  0  0  0
M  END
>  <Name_Molregno>
603816

>  <5-HT2A>
9.2

>  <5-HT2C>
6.5

$$$$
603872
  Marvin  02231216192D 0   1.00000     0.00000     0

 27 29  0  0  0  0  0  0  0  0999 V2000
    0.6195    0.6286    0.0000 Cl  0  0  0  0  0  0  0  0  0
    0.6195   -0.1964    0.0000 C   0  0  0  0  0  0  0  0  0
    1.2870   -0.6813    0.0000 C   0  0  0  0  0  0  0  0  0
    1.0320   -1.4660    0.0000 N   0  0  0  0  0  0  0  0  0
    0.2070   -1.4660    0.0000 N   0  0  0  0  0  0  0  0  0
   -0.2779   -2.1334    0.0000 C   0  0  0  0  0  0  0  0  0
   -0.0479   -0.6813    0.0000 C   0  0  0  0  0  0  0  0  0
   -0.8325   -0.4264    0.0000 C   0  0  0  0  0  0  0  0  0
   -1.4456   -0.9784    0.0000 C   0  0  0  0  0  0  0  0  0
   -2.2302   -0.7235    0.0000 C   0  0  0  0  0  0  0  0  0
   -2.8433   -1.2755    0.0000 N   0  0  0  0  0  0  0  0  0
   -3.6279   -1.0206    0.0000 C   0  0  0  0  0  0  0  0  0
   -3.7995   -0.2136    0.0000 O   0  0  0  0  0  0  0  0  0
   -4.2410   -1.5726    0.0000 N   0  0  0  0  0  0  0  0  0
   -5.0257   -1.3177    0.0000 C   0  0  0  0  0  0  0  0  0
   -5.6388   -1.8697    0.0000 C   0  0  0  0  0  0  0  0  0
   -6.4234   -1.6148    0.0000 C   0  0  0  0  0  0  0  0  0
   -7.0365   -2.1668    0.0000 F   0  0  0  0  0  0  0  0  0
   -6.5949   -0.8078    0.0000 C   0  0  0  0  0  0  0  0  0
   -7.3795   -0.5529    0.0000 F   0  0  0  0  0  0  0  0  0
   -5.9818   -0.2558    0.0000 C   0  0  0  0  0  0  0  0  0
   -5.1972   -0.5107    0.0000 C   0  0  0  0  0  0  0  0  0
   -2.4018    0.0835    0.0000 C   0  0  0  0  0  0  0  0  0
   -1.7887    0.6355    0.0000 C   0  0  0  0  0  0  0  0  0
   -1.0040    0.3806    0.0000 C   0  0  0  0  0  0  0  0  0
   -0.3909    0.9326    0.0000 O   0  0  0  0  0  0  0  0  0
   -0.5625    1.7396    0.0000 C   0  0  0  0  0  0  0  0  0
  1  2  1  0  0  0  0
  2  3  4  0  0  0  0
  2  7  4  0  0  0  0
  3  4  4  0  0  0  0
  4  5  4  0  0  0  0
  5  6  1  0  0  0  0
  5  7  4  0  0  0  0
  7  8  1  0  0  0  0
  8  9  4  0  0  0  0
  8 25  4  0  0  0  0
  9 10  4  0  0  0  0
 10 11  1  0  0  0  0
 10 23  4  0  0  0  0
 11 12  1  0  0  0  0
 12 13  2  0  0  0  0
 12 14  1  0  0  0  0
 14 15  1  0  0  0  0
 15 16  4  0  0  0  0
 15 22  4  0  0  0  0
 16 17  4  0  0  0  0
 17 18  1  0  0  0  0
 17 19  4  0  0  0  0
 19 20  1  0  0  0  0
 19 21  4  0  0  0  0
 21 22  4  0  0  0  0
 23 24  4  0  0  0  0
 24 25  4  0  0  0  0
 25 26  1  0  0  0  0
 26 27  1  0  0  0  0
M  END
>  <Name_Molregno>
603872

>  <5-HT2A>
9.6

>  <5-HT2C>
7.6

$$$$
603873
  Marvin  02231216192D 0   1.00000     0.00000     0

 33 35  0  0  0  0  0  0  0  0999 V2000
   -1.6523    2.5372    0.0000 Br  0  0  0  0  0  0  0  0  0
   -1.6523    1.7122    0.0000 C   0  0  0  0  0  0  0  0  0
   -0.9849    1.2272    0.0000 C   0  0  0  0  0  0  0  0  0
   -1.2398    0.4426    0.0000 N   0  0  0  0  0  0  0  0  0
   -2.0648    0.4426    0.0000 N   0  0  0  0  0  0  0  0  0
   -2.5498   -0.2248    0.0000 C   0  0  0  0  0  0  0  0  0
   -2.3198    1.2272    0.0000 C   0  0  0  0  0  0  0  0  0
   -3.1044    1.4822    0.0000 C   0  0  0  0  0  0  0  0  0
   -3.7175    0.9301    0.0000 C   0  0  0  0  0  0  0  0  0
   -4.5021    1.1851    0.0000 C   0  0  0  0  0  0  0  0  0
   -5.1152    0.6330    0.0000 N   0  0  0  0  0  0  0  0  0
   -4.9437   -0.1739    0.0000 C   0  0  0  0  0  0  0  0  0
   -4.1591   -0.4289    0.0000 O   0  0  0  0  0  0  0  0  0
   -5.5568   -0.7260    0.0000 N   0  0  0  0  0  0  0  0  0
   -5.3853   -1.5329    0.0000 C   0  0  0  0  0  0  0  0  0
   -4.6006   -1.7879    0.0000 C   0  0  0  0  0  0  0  0  0
   -4.4291   -2.5948    0.0000 C   0  0  0  0  0  0  0  0  0
   -5.0422   -3.1469    0.0000 C   0  0  0  0  0  0  0  0  0
   -5.8268   -2.8919    0.0000 C   0  0  0  0  0  0  0  0  0
   -5.9984   -2.0850    0.0000 C   0  0  0  0  0  0  0  0  0
   -6.4399   -3.4440    0.0000 C   0  0  0  0  0  0  0  0  0
   -7.0530   -3.9960    0.0000 F   0  0  0  0  0  0  0  0  0
   -6.9920   -2.8309    0.0000 F   0  0  0  0  0  0  0  0  0
   -5.8879   -4.0571    0.0000 F   0  0  0  0  0  0  0  0  0
   -3.6445   -2.8498    0.0000 C   0  0  0  0  0  0  0  0  0
   -2.8599   -3.1047    0.0000 F   0  0  0  0  0  0  0  0  0
   -3.8994   -3.6344    0.0000 F   0  0  0  0  0  0  0  0  0
   -3.3896   -2.0652    0.0000 F   0  0  0  0  0  0  0  0  0
   -4.6737    1.9920    0.0000 C   0  0  0  0  0  0  0  0  0
   -4.0606    2.5441    0.0000 C   0  0  0  0  0  0  0  0  0
   -3.2759    2.2891    0.0000 C   0  0  0  0  0  0  0  0  0
   -2.6628    2.8412    0.0000 O   0  0  0  0  0  0  0  0  0
   -2.8344    3.6481    0.0000 C   0  0  0  0  0  0  0  0  0
  1  2  1  0  0  0  0
  2  3  4  0  0  0  0
  2  7  4  0  0  0  0
  3  4  4  0  0  0  0
  4  5  4  0  0  0  0
  5  6  1  0  0  0  0
  5  7  4  0  0  0  0
  7  8  1  0  0  0  0
  8  9  4  0  0  0  0
  8 31  4  0  0  0  0
  9 10  4  0  0  0  0
 10 11  1  0  0  0  0
 10 29  4  0  0  0  0
 11 12  1  0  0  0  0
 12 13  2  0  0  0  0
 12 14  1  0  0  0  0
 14 15  1  0  0  0  0
 15 16  4  0  0  0  0
 15 20  4  0  0  0  0
 16 17  4  0  0  0  0
 17 18  4  0  0  0  0
 17 25  1  0  0  0  0
 18 19  4  0  0  0  0
 19 20  4  0  0  0  0
 19 21  1  0  0  0  0
 21 22  1  0  0  0  0
 21 23  1  0  0  0  0
 21 24  1  0  0  0  0
 25 26  1  0  0  0  0
 25 27  1  0  0  0  0
 25 28  1  0  0  0  0
 29 30  4  0  0  0  0
 30 31  4  0  0  0  0
 31 32  1  0  0  0  0
 32 33  1  0  0  0  0
M  END
>  <Name_Molregno>
603873

>  <5-HT2A>
9.4

>  <5-HT2C>
7.5

$$$$
603874
  Marvin  02231216192D 0   1.00000     0.00000     0

 33 35  0  0  0  0  0  0  0  0999 V2000
   -1.6523    2.5372    0.0000 Cl  0  0  0  0  0  0  0  0  0
   -1.6523    1.7122    0.0000 C   0  0  0  0  0  0  0  0  0
   -0.9849    1.2272    0.0000 C   0  0  0  0  0  0  0  0  0
   -1.2398    0.4426    0.0000 N   0  0  0  0  0  0  0  0  0
   -2.0648    0.4426    0.0000 N   0  0  0  0  0  0  0  0  0
   -2.5498   -0.2248    0.0000 C   0  0  0  0  0  0  0  0  0
   -2.3198    1.2272    0.0000 C   0  0  0  0  0  0  0  0  0
   -3.1044    1.4822    0.0000 C   0  0  0  0  0  0  0  0  0
   -3.7175    0.9301    0.0000 C   0  0  0  0  0  0  0  0  0
   -4.5021    1.1851    0.0000 C   0  0  0  0  0  0  0  0  0
   -5.1152    0.6330    0.0000 N   0  0  0  0  0  0  0  0  0
   -4.9437   -0.1739    0.0000 C   0  0  0  0  0  0  0  0  0
   -4.1591   -0.4289    0.0000 O   0  0  0  0  0  0  0  0  0
   -5.5568   -0.7260    0.0000 N   0  0  0  0  0  0  0  0  0
   -5.3853   -1.5329    0.0000 C   0  0  0  0  0  0  0  0  0
   -4.6006   -1.7879    0.0000 C   0  0  0  0  0  0  0  0  0
   -4.4291   -2.5948    0.0000 C   0  0  0  0  0  0  0  0  0
   -5.0422   -3.1469    0.0000 C   0  0  0  0  0  0  0  0  0
   -5.8268   -2.8919    0.0000 C   0  0  0  0  0  0  0  0  0
   -5.9984   -2.0850    0.0000 C   0  0  0  0  0  0  0  0  0
   -6.4399   -3.4440    0.0000 C   0  0  0  0  0  0  0  0  0
   -7.0530   -3.9960    0.0000 F   0  0  0  0  0  0  0  0  0
   -6.9920   -2.8309    0.0000 F   0  0  0  0  0  0  0  0  0
   -5.8879   -4.0571    0.0000 F   0  0  0  0  0  0  0  0  0
   -3.6445   -2.8498    0.0000 C   0  0  0  0  0  0  0  0  0
   -2.8599   -3.1047    0.0000 F   0  0  0  0  0  0  0  0  0
   -3.8994   -3.6344    0.0000 F   0  0  0  0  0  0  0  0  0
   -3.3896   -2.0652    0.0000 F   0  0  0  0  0  0  0  0  0
   -4.6737    1.9920    0.0000 C   0  0  0  0  0  0  0  0  0
   -4.0606    2.5441    0.0000 C   0  0  0  0  0  0  0  0  0
   -3.2759    2.2891    0.0000 C   0  0  0  0  0  0  0  0  0
   -2.6628    2.8412    0.0000 O   0  0  0  0  0  0  0  0  0
   -2.8344    3.6481    0.0000 C   0  0  0  0  0  0  0  0  0
  1  2  1  0  0  0  0
  2  3  4  0  0  0  0
  2  7  4  0  0  0  0
  3  4  4  0  0  0  0
  4  5  4  0  0  0  0
  5  6  1  0  0  0  0
  5  7  4  0  0  0  0
  7  8  1  0  0  0  0
  8  9  4  0  0  0  0
  8 31  4  0  0  0  0
  9 10  4  0  0  0  0
 10 11  1  0  0  0  0
 10 29  4  0  0  0  0
 11 12  1  0  0  0  0
 12 13  2  0  0  0  0
 12 14  1  0  0  0  0
 14 15  1  0  0  0  0
 15 16  4  0  0  0  0
 15 20  4  0  0  0  0
 16 17  4  0  0  0  0
 17 18  4  0  0  0  0
 17 25  1  0  0  0  0
 18 19  4  0  0  0  0
 19 20  4  0  0  0  0
 19 21  1  0  0  0  0
 21 22  1  0  0  0  0
 21 23  1  0  0  0  0
 21 24  1  0  0  0  0
 25 26  1  0  0  0  0
 25 27  1  0  0  0  0
 25 28  1  0  0  0  0
 29 30  4  0  0  0  0
 30 31  4  0  0  0  0
 31 32  1  0  0  0  0
 32 33  1  0  0  0  0
M  END
>  <Name_Molregno>
603874

>  <5-HT2A>
9

>  <5-HT2C>
7.2

$$$$
603875
  Marvin  02231216192D 0   1.00000     0.00000     0

 30 32  0  0  0  0  0  0  0  0999 V2000
   -0.2602    0.2911    0.0000 Br  0  0  0  0  0  0  0  0  0
   -0.2602   -0.5339    0.0000 C   0  0  0  0  0  0  0  0  0
    0.4072   -1.0188    0.0000 C   0  0  0  0  0  0  0  0  0
    0.1523   -1.8034    0.0000 N   0  0  0  0  0  0  0  0  0
   -0.6727   -1.8034    0.0000 N   0  0  0  0  0  0  0  0  0
   -1.1576   -2.4709    0.0000 C   0  0  0  0  0  0  0  0  0
   -0.9277   -1.0188    0.0000 C   0  0  0  0  0  0  0  0  0
   -1.7123   -0.7639    0.0000 C   0  0  0  0  0  0  0  0  0
   -2.3254   -1.3159    0.0000 C   0  0  0  0  0  0  0  0  0
   -3.1100   -1.0610    0.0000 C   0  0  0  0  0  0  0  0  0
   -3.7231   -1.6130    0.0000 N   0  0  0  0  0  0  0  0  0
   -4.5077   -1.3581    0.0000 C   0  0  0  0  0  0  0  0  0
   -4.6792   -0.5511    0.0000 O   0  0  0  0  0  0  0  0  0
   -5.1208   -1.9101    0.0000 N   0  0  0  0  0  0  0  0  0
   -5.9054   -1.6552    0.0000 C   0  0  0  0  0  0  0  0  0
   -6.5185   -2.2072    0.0000 C   0  0  0  0  0  0  0  0  0
   -7.3031   -1.9522    0.0000 C   0  0  0  0  0  0  0  0  0
   -7.4747   -1.1453    0.0000 C   0  0  0  0  0  0  0  0  0
   -8.2593   -0.8903    0.0000 Cl  0  0  0  0  0  0  0  0  0
   -6.8616   -0.5932    0.0000 C   0  0  0  0  0  0  0  0  0
   -6.0770   -0.8482    0.0000 C   0  0  0  0  0  0  0  0  0
   -5.4639   -0.2961    0.0000 C   0  0  0  0  0  0  0  0  0
   -4.8508    0.2559    0.0000 F   0  0  0  0  0  0  0  0  0
   -6.0159    0.3169    0.0000 F   0  0  0  0  0  0  0  0  0
   -4.9118   -0.9092    0.0000 F   0  0  0  0  0  0  0  0  0
   -3.2815   -0.2540    0.0000 C   0  0  0  0  0  0  0  0  0
   -2.6684    0.2980    0.0000 C   0  0  0  0  0  0  0  0  0
   -1.8838    0.0431    0.0000 C   0  0  0  0  0  0  0  0  0
   -1.2707    0.5951    0.0000 O   0  0  0  0  0  0  0  0  0
   -1.4422    1.4021    0.0000 C   0  0  0  0  0  0  0  0  0
  1  2  1  0  0  0  0
  2  3  4  0  0  0  0
  2  7  4  0  0  0  0
  3  4  4  0  0  0  0
  4  5  4  0  0  0  0
  5  6  1  0  0  0  0
  5  7  4  0  0  0  0
  7  8  1  0  0  0  0
  8  9  4  0  0  0  0
  8 28  4  0  0  0  0
  9 10  4  0  0  0  0
 10 11  1  0  0  0  0
 10 26  4  0  0  0  0
 11 12  1  0  0  0  0
 12 13  2  0  0  0  0
 12 14  1  0  0  0  0
 14 15  1  0  0  0  0
 15 16  4  0  0  0  0
 15 21  4  0  0  0  0
 16 17  4  0  0  0  0
 17 18  4  0  0  0  0
 18 19  1  0  0  0  0
 18 20  4  0  0  0  0
 20 21  4  0  0  0  0
 21 22  1  0  0  0  0
 22 23  1  0  0  0  0
 22 24  1  0  0  0  0
 22 25  1  0  0  0  0
 26 27  4  0  0  0  0
 27 28  4  0  0  0  0
 28 29  1  0  0  0  0
 29 30  1  0  0  0  0
M  END
>  <Name_Molregno>
603875

>  <5-HT2A>
9.3

>  <5-HT2C>
6.9

$$$$
604558
  Marvin  02231216192D 0   1.00000     0.00000     0

 27 29  0  0  0  0  0  0  0  0999 V2000
    0.6195    0.6286    0.0000 F   0  0  0  0  0  0  0  0  0
    0.6195   -0.1964    0.0000 C   0  0  0  0  0  0  0  0  0
    1.2870   -0.6813    0.0000 C   0  0  0  0  0  0  0  0  0
    1.0320   -1.4660    0.0000 N   0  0  0  0  0  0  0  0  0
    0.2070   -1.4660    0.0000 N   0  0  0  0  0  0  0  0  0
   -0.2779   -2.1334    0.0000 C   0  0  0  0  0  0  0  0  0
   -0.0479   -0.6813    0.0000 C   0  0  0  0  0  0  0  0  0
   -0.8325   -0.4264    0.0000 C   0  0  0  0  0  0  0  0  0
   -1.4456   -0.9784    0.0000 C   0  0  0  0  0  0  0  0  0
   -2.2302   -0.7235    0.0000 C   0  0  0  0  0  0  0  0  0
   -2.8433   -1.2755    0.0000 N   0  0  0  0  0  0  0  0  0
   -3.6279   -1.0206    0.0000 C   0  0  0  0  0  0  0  0  0
   -3.7995   -0.2136    0.0000 O   0  0  0  0  0  0  0  0  0
   -4.2410   -1.5726    0.0000 N   0  0  0  0  0  0  0  0  0
   -5.0257   -1.3177    0.0000 C   0  0  0  0  0  0  0  0  0
   -5.6388   -1.8697    0.0000 C   0  0  0  0  0  0  0  0  0
   -6.4234   -1.6148    0.0000 C   0  0  0  0  0  0  0  0  0
   -7.0365   -2.1668    0.0000 F   0  0  0  0  0  0  0  0  0
   -6.5949   -0.8078    0.0000 C   0  0  0  0  0  0  0  0  0
   -7.3795   -0.5529    0.0000 F   0  0  0  0  0  0  0  0  0
   -5.9818   -0.2558    0.0000 C   0  0  0  0  0  0  0  0  0
   -5.1972   -0.5107    0.0000 C   0  0  0  0  0  0  0  0  0
   -2.4018    0.0835    0.0000 C   0  0  0  0  0  0  0  0  0
   -1.7887    0.6355    0.0000 C   0  0  0  0  0  0  0  0  0
   -1.0040    0.3806    0.0000 C   0  0  0  0  0  0  0  0  0
   -0.3909    0.9326    0.0000 O   0  0  0  0  0  0  0  0  0
   -0.5625    1.7396    0.0000 C   0  0  0  0  0  0  0  0  0
  1  2  1  0  0  0  0
  2  3  4  0  0  0  0
  2  7  4  0  0  0  0
  3  4  4  0  0  0  0
  4  5  4  0  0  0  0
  5  6  1  0  0  0  0
  5  7  4  0  0  0  0
  7  8  1  0  0  0  0
  8  9  4  0  0  0  0
  8 25  4  0  0  0  0
  9 10  4  0  0  0  0
 10 11  1  0  0  0  0
 10 23  4  0  0  0  0
 11 12  1  0  0  0  0
 12 13  2  0  0  0  0
 12 14  1  0  0  0  0
 14 15  1  0  0  0  0
 15 16  4  0  0  0  0
 15 22  4  0  0  0  0
 16 17  4  0  0  0  0
 17 18  1  0  0  0  0
 17 19  4  0  0  0  0
 19 20  1  0  0  0  0
 19 21  4  0  0  0  0
 21 22  4  0  0  0  0
 23 24  4  0  0  0  0
 24 25  4  0  0  0  0
 25 26  1  0  0  0  0
 26 27  1  0  0  0  0
M  END
>  <Name_Molregno>
604558

>  <5-HT2A>
8.9

>  <5-HT2C>
6.4

$$$$
608576
  Marvin  02231216192D 0   1.00000     0.00000     0

 26 29  0  0  1  0  0  0  0  0999 V2000
    0.8469   -3.8121    0.0000 S   0  0  0  0  0  0  0  0  0
    1.5614   -3.3996    0.0000 C   0  0  0  0  0  0  0  0  0
    1.5614   -2.5746    0.0000 C   0  0  0  0  0  0  0  0  0
    0.8469   -2.1621    0.0000 N   0  0  0  0  0  0  0  0  0
    0.1324   -2.5746    0.0000 C   0  0  0  0  0  0  0  0  0
    0.1324   -3.3996    0.0000 C   0  0  0  0  0  0  0  0  0
   -0.5820   -3.8121    0.0000 C   0  0  0  0  0  0  0  0  0
   -1.2965   -3.3996    0.0000 C   0  0  0  0  0  0  0  0  0
   -1.2965   -2.5746    0.0000 C   0  0  0  0  0  0  0  0  0
   -0.5820   -2.1621    0.0000 C   0  0  0  0  0  0  0  0  0
    0.8469   -1.3371    0.0000 C   0  0  0  0  0  0  0  0  0
    0.1324   -0.9246    0.0000 C   0  0  0  0  0  0  0  0  0
    0.1324   -0.0996    0.0000 C   0  0  0  0  0  0  0  0  0
   -0.5820    0.3129    0.0000 N   0  0  0  0  0  0  0  0  0
   -0.5820    1.1379    0.0000 C   0  0  0  0  0  0  0  0  0
    0.1324    1.5504    0.0000 C   0  0  0  0  0  0  0  0  0
    0.8469    1.1379    0.0000 C   0  0  0  0  0  0  0  0  0
    0.8469    0.3129    0.0000 C   0  0  0  0  0  0  0  0  0
   -1.2965   -0.0996    0.0000 C   0  0  0  0  0  0  0  0  0
    2.2758   -2.1621    0.0000 C   0  0  0  0  0  0  0  0  0
    2.9903   -2.5746    0.0000 C   0  0  0  0  0  0  0  0  0
    3.7048   -2.1621    0.0000 S   0  0  0  0  0  0  0  0  0
    3.7048   -1.3371    0.0000 O   0  0  0  0  0  0  0  0  0
    4.4193   -2.5746    0.0000 C   0  0  0  0  0  0  0  0  0
    2.9903   -3.3996    0.0000 C   0  0  0  0  0  0  0  0  0
    2.2758   -3.8121    0.0000 C   0  0  0  0  0  0  0  0  0
  1  2  1  0  0  0  0
  1  6  1  0  0  0  0
  2  3  4  0  0  0  0
  2 26  4  0  0  0  0
  3  4  1  0  0  0  0
  3 20  4  0  0  0  0
  4  5  1  0  0  0  0
  4 11  1  0  0  0  0
  5  6  4  0  0  0  0
  5 10  4  0  0  0  0
  6  7  4  0  0  0  0
  7  8  4  0  0  0  0
  8  9  4  0  0  0  0
  9 10  4  0  0  0  0
 11 12  1  0  0  0  0
 12 13  1  0  0  0  0
 13 14  1  0  0  0  0
 13 18  1  0  0  0  0
 14 15  1  0  0  0  0
 14 19  1  0  0  0  0
 15 16  1  0  0  0  0
 16 17  1  0  0  0  0
 17 18  1  0  0  0  0
 20 21  4  0  0  0  0
 21 22  1  0  0  0  0
 21 25  4  0  0  0  0
 22 23  2  0  0  0  0
 22 24  1  0  0  0  0
 25 26  4  0  0  0  0
M  END
>  <Name_Molregno>
608576

>  <5-HT1A>
6.76

>  <5-HT2A>
8.12

>  <5-HT2C>
6.8

>  <5-HT6>
6.42

>  <DOPAMINE D1>
6.35

>  <DOPAMINE D2>
7.31

>  <DOPAMINE D3>
7.51

>  <DOPAMINE D4>
8.04

>  <HISTAMINE H1>
8.74

>  <Muscarinic acetylcholine receptor M1>
8

>  <Muscarinic acetylcholine receptor M2>
7.82

>  <Muscarinic acetylcholine receptor M3>
7.05

>  <Muscarinic acetylcholine receptor M4>
7.72

>  <Muscarinic acetylcholine receptor M5>
7.22

$$$$
610059
  Marvin  02231216192D 0   1.00000     0.00000     0

 27 30  0  0  1  0  0  0  0  0999 V2000
   -0.5134   -0.5339    0.0000 Cl  0  0  0  0  0  0  0  0  0
    0.2011   -0.9464    0.0000 C   0  0  0  0  0  0  0  0  0
    0.9155   -0.5339    0.0000 C   0  0  0  0  0  0  0  0  0
    1.6300   -0.9464    0.0000 C   0  0  0  0  0  0  0  0  0
    1.6300   -1.7714    0.0000 C   0  0  0  0  0  0  0  0  0
    0.9155   -2.1839    0.0000 C   0  0  0  0  0  0  0  0  0
    0.2011   -1.7714    0.0000 C   0  0  0  0  0  0  0  0  0
   -0.5134   -2.1839    0.0000 S   0  0  0  0  0  0  0  0  0
   -0.9259   -1.4694    0.0000 O   0  0  0  0  0  0  0  0  0
   -0.1009   -2.8983    0.0000 O   0  0  0  0  0  0  0  0  0
   -1.2279   -2.5964    0.0000 N   0  0  0  0  0  0  0  0  0
   -1.9424   -2.1839    0.0000 C   0  0  0  0  0  0  0  0  0
   -2.6568   -2.5964    0.0000 C   0  0  0  0  0  0  0  0  0
   -3.3713   -2.1839    0.0000 C   0  0  0  0  0  0  0  0  0
   -3.3713   -1.3589    0.0000 C   0  0  0  0  0  0  0  0  0
   -4.1559   -1.1039    0.0000 N   0  0  0  0  0  0  0  0  0
   -4.6408   -1.7714    0.0000 C   0  0  0  0  0  0  0  0  0
   -4.1559   -2.4388    0.0000 C   0  0  0  0  0  0  0  0  0
   -4.4109   -3.2234    0.0000 C   0  0  0  0  0  0  0  0  0
   -5.2178   -3.3950    0.0000 C   0  0  0  0  0  0  0  0  0
   -5.5534   -4.1486    0.0000 N   0  0  0  0  0  0  0  0  0
   -6.3739   -4.0624    0.0000 C   0  0  0  0  0  0  0  0  0
   -6.5454   -3.2554    0.0000 C   0  0  0  0  0  0  0  0  0
   -5.8309   -2.8429    0.0000 C   0  0  0  0  0  0  0  0  0
   -5.1409   -4.8631    0.0000 C   0  0  0  0  0  0  0  0  0
   -2.6568   -0.9464    0.0000 C   0  0  0  0  0  0  0  0  0
   -1.9424   -1.3589    0.0000 C   0  0  0  0  0  0  0  0  0
  1  2  1  0  0  0  0
  2  3  4  0  0  0  0
  2  7  4  0  0  0  0
  3  4  4  0  0  0  0
  4  5  4  0  0  0  0
  5  6  4  0  0  0  0
  6  7  4  0  0  0  0
  7  8  1  0  0  0  0
  8  9  2  0  0  0  0
  8 10  2  0  0  0  0
  8 11  1  0  0  0  0
 11 12  1  0  0  0  0
 12 13  4  0  0  0  0
 12 27  4  0  0  0  0
 13 14  4  0  0  0  0
 14 15  4  0  0  0  0
 14 18  4  0  0  0  0
 15 16  4  0  0  0  0
 15 26  4  0  0  0  0
 16 17  4  0  0  0  0
 17 18  4  0  0  0  0
 18 19  1  0  0  0  0
 19 20  1  0  0  0  0
 20 21  1  0  0  0  0
 20 24  1  0  0  0  0
 21 22  1  0  0  0  0
 21 25  1  0  0  0  0
 22 23  1  0  0  0  0
 23 24  1  0  0  0  0
 26 27  4  0  0  0  0
M  STY  1   1 DAT
M  SAL   1  1  16
M  SDT   1 MRV_IMPLICIT_H                                        
M  SDD   1     0.0000    0.0000    DR    ALL  0       0  
M  SED   1 IMPL_H1
M  END
>  <Name_Molregno>
610059

>  <5-HT1A>
6.77

>  <5-HT1B>
7.82

>  <5-HT1D>
7.53

>  <5-HT2A>
6.44

>  <5-HT2C>
6.54

>  <5-HT6>
8.33

>  <5-HT7>
7.13

>  <DOPAMINE D2>
5.7

>  <DOPAMINE D3>
6

>  <DOPAMINE D4>
5.3

$$$$
610060
  Marvin  02231216192D 0   1.00000     0.00000     0

 27 30  0  0  1  0  0  0  0  0999 V2000
    9.2263   -0.0100    0.0000 Cl  0  0  0  0  0  0  0  0  0
    8.5119    0.4025    0.0000 C   0  0  0  0  0  0  0  0  0
    7.7974   -0.0100    0.0000 C   0  0  0  0  0  0  0  0  0
    7.0829    0.4025    0.0000 C   0  0  0  0  0  0  0  0  0
    6.3685   -0.0100    0.0000 S   0  0  0  0  0  0  0  0  0
    5.9560    0.7045    0.0000 O   0  0  0  0  0  0  0  0  0
    6.7810   -0.7245    0.0000 O   0  0  0  0  0  0  0  0  0
    5.6540   -0.4225    0.0000 N   0  0  0  0  0  0  0  0  0
    4.9395   -0.0100    0.0000 C   0  0  0  0  0  0  0  0  0
    4.2250   -0.4225    0.0000 C   0  0  0  0  0  0  0  0  0
    3.5106   -0.0100    0.0000 C   0  0  0  0  0  0  0  0  0
    3.5106    0.8150    0.0000 C   0  0  0  0  0  0  0  0  0
    2.7260    1.0699    0.0000 N   0  0  0  0  0  0  0  0  0
    2.2410    0.4025    0.0000 C   0  0  0  0  0  0  0  0  0
    2.7260   -0.2649    0.0000 C   0  0  0  0  0  0  0  0  0
    2.4710   -1.0496    0.0000 C   0  0  0  0  0  0  0  0  0
    1.6640   -1.2211    0.0000 C   0  0  0  0  0  0  0  0  0
    1.3285   -1.9748    0.0000 N   0  0  0  0  0  0  0  0  0
    0.5080   -1.8885    0.0000 C   0  0  0  0  0  0  0  0  0
    0.3365   -1.0816    0.0000 C   0  0  0  0  0  0  0  0  0
    1.0509   -0.6691    0.0000 C   0  0  0  0  0  0  0  0  0
    1.7410   -2.6892    0.0000 C   0  0  0  0  0  0  0  0  0
    4.2250    1.2275    0.0000 C   0  0  0  0  0  0  0  0  0
    4.9395    0.8150    0.0000 C   0  0  0  0  0  0  0  0  0
    7.0829    1.2275    0.0000 C   0  0  0  0  0  0  0  0  0
    7.7974    1.6400    0.0000 C   0  0  0  0  0  0  0  0  0
    8.5119    1.2275    0.0000 C   0  0  0  0  0  0  0  0  0
  1  2  1  0  0  0  0
  2  3  4  0  0  0  0
  2 27  4  0  0  0  0
  3  4  4  0  0  0  0
  4  5  1  0  0  0  0
  4 25  4  0  0  0  0
  5  6  2  0  0  0  0
  5  7  2  0  0  0  0
  5  8  1  0  0  0  0
  8  9  1  0  0  0  0
  9 10  4  0  0  0  0
  9 24  4  0  0  0  0
 10 11  4  0  0  0  0
 11 12  4  0  0  0  0
 11 15  4  0  0  0  0
 12 13  4  0  0  0  0
 12 23  4  0  0  0  0
 13 14  4  0  0  0  0
 14 15  4  0  0  0  0
 15 16  1  0  0  0  0
 16 17  1  0  0  0  0
 17 18  1  0  0  0  0
 17 21  1  0  0  0  0
 18 19  1  0  0  0  0
 18 22  1  0  0  0  0
 19 20  1  0  0  0  0
 20 21  1  0  0  0  0
 23 24  4  0  0  0  0
 25 26  4  0  0  0  0
 26 27  4  0  0  0  0
M  STY  1   1 DAT
M  SAL   1  1  13
M  SDT   1 MRV_IMPLICIT_H                                        
M  SDD   1     0.0000    0.0000    DR    ALL  0       0  
M  SED   1 IMPL_H1
M  END
>  <Name_Molregno>
610060

>  <5-HT1A>
6.7

>  <5-HT1B>
8.37

>  <5-HT1D>
8.33

>  <5-HT2A>
6.57

>  <5-HT2C>
6.64

>  <5-HT6>
8.68

>  <5-HT7>
7.62

>  <DOPAMINE D2>
5.7

>  <DOPAMINE D3>
6.03

>  <DOPAMINE D4>
5.3

$$$$
631727
  Marvin  02231216192D 0   1.00000     0.00000     0

 33 36  0  0  0  0  0  0  0  0999 V2000
   10.0700    2.7766    0.0000 F   0  0  0  0  0  0  0  0  0
    9.3555    2.3641    0.0000 C   0  0  0  0  0  0  0  0  0
    8.9430    3.0786    0.0000 F   0  0  0  0  0  0  0  0  0
    9.7680    1.6496    0.0000 F   0  0  0  0  0  0  0  0  0
    8.6410    1.9516    0.0000 C   0  0  0  0  0  0  0  0  0
    8.6410    1.1266    0.0000 C   0  0  0  0  0  0  0  0  0
    7.9265    0.7141    0.0000 C   0  0  0  0  0  0  0  0  0
    7.2121    1.1266    0.0000 C   0  0  0  0  0  0  0  0  0
    7.2121    1.9516    0.0000 C   0  0  0  0  0  0  0  0  0
    7.9265    2.3641    0.0000 C   0  0  0  0  0  0  0  0  0
    6.4976    0.7141    0.0000 C   0  0  0  0  0  0  0  0  0
    5.7831    1.1266    0.0000 O   0  0  0  0  0  0  0  0  0
    6.4976   -0.1109    0.0000 N   0  0  0  0  0  0  0  0  0
    5.7831   -0.5234    0.0000 C   0  0  0  0  0  0  0  0  0
    5.7831   -1.3484    0.0000 C   0  0  0  0  0  0  0  0  0
    5.0687   -1.7609    0.0000 C   0  0  0  0  0  0  0  0  0
    5.0687   -2.5859    0.0000 C   0  0  0  0  0  0  0  0  0
    5.7361   -3.0708    0.0000 N   0  0  0  0  0  0  0  0  0
    5.4812   -3.8554    0.0000 N   0  0  0  0  0  0  0  0  0
    4.6562   -3.8554    0.0000 C   0  0  0  0  0  0  0  0  0
    4.4012   -3.0708    0.0000 C   0  0  0  0  0  0  0  0  0
    6.5207   -2.8159    0.0000 C   0  0  0  0  0  0  0  0  0
    4.3542   -1.3484    0.0000 C   0  0  0  0  0  0  0  0  0
    3.6397   -1.7609    0.0000 O   0  0  0  0  0  0  0  0  0
    2.9252   -1.3484    0.0000 C   0  0  0  0  0  0  0  0  0
    2.2108   -1.7609    0.0000 C   0  0  0  0  0  0  0  0  0
    1.4963   -1.3484    0.0000 N   0  0  0  0  0  0  0  0  0
    0.7426   -1.6839    0.0000 C   0  0  0  0  0  0  0  0  0
    0.1906   -1.0709    0.0000 C   0  0  0  0  0  0  0  0  0
    0.6031   -0.3564    0.0000 C   0  0  0  0  0  0  0  0  0
    1.4101   -0.5279    0.0000 C   0  0  0  0  0  0  0  0  0
    4.3542   -0.5234    0.0000 C   0  0  0  0  0  0  0  0  0
    5.0687   -0.1109    0.0000 C   0  0  0  0  0  0  0  0  0
  1  2  1  0  0  0  0
  2  3  1  0  0  0  0
  2  4  1  0  0  0  0
  2  5  1  0  0  0  0
  5  6  4  0  0  0  0
  5 10  4  0  0  0  0
  6  7  4  0  0  0  0
  7  8  4  0  0  0  0
  8  9  4  0  0  0  0
  8 11  1  0  0  0  0
  9 10  4  0  0  0  0
 11 12  2  0  0  0  0
 11 13  1  0  0  0  0
 13 14  1  0  0  0  0
 14 15  4  0  0  0  0
 14 33  4  0  0  0  0
 15 16  4  0  0  0  0
 16 17  1  0  0  0  0
 16 23  4  0  0  0  0
 17 18  4  0  0  0  0
 17 21  4  0  0  0  0
 18 19  4  0  0  0  0
 18 22  1  0  0  0  0
 19 20  4  0  0  0  0
 20 21  4  0  0  0  0
 23 24  1  0  0  0  0
 23 32  4  0  0  0  0
 24 25  1  0  0  0  0
 25 26  1  0  0  0  0
 26 27  1  0  0  0  0
 27 28  1  0  0  0  0
 27 31  1  0  0  0  0
 28 29  1  0  0  0  0
 29 30  1  0  0  0  0
 30 31  1  0  0  0  0
 32 33  4  0  0  0  0
M  END
>  <Name_Molregno>
631727

>  <5-HT2A>
8.72

>  <5-HT2C>
6.65

$$$$
631797
  Marvin  02231216192D 0   1.00000     0.00000     0

 33 36  0  0  0  0  0  0  0  0999 V2000
    9.3900    0.3210    0.0000 F   0  0  0  0  0  0  0  0  0
    8.6756    0.7335    0.0000 C   0  0  0  0  0  0  0  0  0
    9.0881    1.4480    0.0000 F   0  0  0  0  0  0  0  0  0
    8.2631    0.0191    0.0000 F   0  0  0  0  0  0  0  0  0
    7.9611    1.1460    0.0000 C   0  0  0  0  0  0  0  0  0
    7.2466    0.7335    0.0000 C   0  0  0  0  0  0  0  0  0
    6.5322    1.1460    0.0000 C   0  0  0  0  0  0  0  0  0
    6.5322    1.9710    0.0000 C   0  0  0  0  0  0  0  0  0
    7.2466    2.3835    0.0000 C   0  0  0  0  0  0  0  0  0
    7.9611    1.9710    0.0000 C   0  0  0  0  0  0  0  0  0
    5.8177    0.7335    0.0000 C   0  0  0  0  0  0  0  0  0
    5.1032    1.1460    0.0000 O   0  0  0  0  0  0  0  0  0
    5.8177   -0.0915    0.0000 N   0  0  0  0  0  0  0  0  0
    5.1032   -0.5040    0.0000 C   0  0  0  0  0  0  0  0  0
    5.1032   -1.3290    0.0000 C   0  0  0  0  0  0  0  0  0
    4.3887   -1.7415    0.0000 C   0  0  0  0  0  0  0  0  0
    4.3887   -2.5665    0.0000 C   0  0  0  0  0  0  0  0  0
    5.0562   -3.0514    0.0000 N   0  0  0  0  0  0  0  0  0
    4.8012   -3.8360    0.0000 N   0  0  0  0  0  0  0  0  0
    3.9762   -3.8360    0.0000 C   0  0  0  0  0  0  0  0  0
    3.7213   -3.0514    0.0000 C   0  0  0  0  0  0  0  0  0
    5.8408   -2.7964    0.0000 C   0  0  0  0  0  0  0  0  0
    3.6743   -1.3290    0.0000 C   0  0  0  0  0  0  0  0  0
    2.9598   -1.7415    0.0000 O   0  0  0  0  0  0  0  0  0
    2.2453   -1.3290    0.0000 C   0  0  0  0  0  0  0  0  0
    1.5309   -1.7415    0.0000 C   0  0  0  0  0  0  0  0  0
    0.8164   -1.3290    0.0000 N   0  0  0  0  0  0  0  0  0
    0.0627   -1.6645    0.0000 C   0  0  0  0  0  0  0  0  0
   -0.4893   -1.0514    0.0000 C   0  0  0  0  0  0  0  0  0
   -0.0768   -0.3369    0.0000 C   0  0  0  0  0  0  0  0  0
    0.7301   -0.5085    0.0000 C   0  0  0  0  0  0  0  0  0
    3.6743   -0.5040    0.0000 C   0  0  0  0  0  0  0  0  0
    4.3887   -0.0915    0.0000 C   0  0  0  0  0  0  0  0  0
  1  2  1  0  0  0  0
  2  3  1  0  0  0  0
  2  4  1  0  0  0  0
  2  5  1  0  0  0  0
  5  6  4  0  0  0  0
  5 10  4  0  0  0  0
  6  7  4  0  0  0  0
  7  8  4  0  0  0  0
  7 11  1  0  0  0  0
  8  9  4  0  0  0  0
  9 10  4  0  0  0  0
 11 12  2  0  0  0  0
 11 13  1  0  0  0  0
 13 14  1  0  0  0  0
 14 15  4  0  0  0  0
 14 33  4  0  0  0  0
 15 16  4  0  0  0  0
 16 17  1  0  0  0  0
 16 23  4  0  0  0  0
 17 18  4  0  0  0  0
 17 21  4  0  0  0  0
 18 19  4  0  0  0  0
 18 22  1  0  0  0  0
 19 20  4  0  0  0  0
 20 21  4  0  0  0  0
 23 24  1  0  0  0  0
 23 32  4  0  0  0  0
 24 25  1  0  0  0  0
 25 26  1  0  0  0  0
 26 27  1  0  0  0  0
 27 28  1  0  0  0  0
 27 31  1  0  0  0  0
 28 29  1  0  0  0  0
 29 30  1  0  0  0  0
 30 31  1  0  0  0  0
 32 33  4  0  0  0  0
M  END
>  <Name_Molregno>
631797

>  <5-HT2A>
9.22

>  <5-HT2C>
5.94

$$$$
631798
  Marvin  02231216192D 0   1.00000     0.00000     0

 35 38  0  0  0  0  0  0  0  0999 V2000
    8.8872   -0.7394    0.0000 F   0  0  0  0  0  0  0  0  0
    8.3352   -1.3525    0.0000 C   0  0  0  0  0  0  0  0  0
    7.7831   -0.7394    0.0000 F   0  0  0  0  0  0  0  0  0
    9.0026   -1.8374    0.0000 C   0  0  0  0  0  0  0  0  0
    8.7477   -2.6220    0.0000 C   0  0  0  0  0  0  0  0  0
    7.9227   -2.6220    0.0000 N   0  0  0  0  0  0  0  0  0
    7.6677   -1.8374    0.0000 C   0  0  0  0  0  0  0  0  0
    7.4377   -3.2895    0.0000 C   0  0  0  0  0  0  0  0  0
    6.6173   -3.2032    0.0000 C   0  0  0  0  0  0  0  0  0
    6.1323   -3.8707    0.0000 O   0  0  0  0  0  0  0  0  0
    5.3118   -3.7844    0.0000 C   0  0  0  0  0  0  0  0  0
    4.8269   -4.4519    0.0000 C   0  0  0  0  0  0  0  0  0
    4.0064   -4.3656    0.0000 C   0  0  0  0  0  0  0  0  0
    3.6709   -3.6120    0.0000 C   0  0  0  0  0  0  0  0  0
    2.8504   -3.5257    0.0000 N   0  0  0  0  0  0  0  0  0
    2.3655   -4.1932    0.0000 C   0  0  0  0  0  0  0  0  0
    2.7010   -4.9468    0.0000 O   0  0  0  0  0  0  0  0  0
    1.5450   -4.1069    0.0000 C   0  0  0  0  0  0  0  0  0
    1.0601   -4.7744    0.0000 C   0  0  0  0  0  0  0  0  0
    0.2396   -4.6881    0.0000 C   0  0  0  0  0  0  0  0  0
   -0.0960   -3.9344    0.0000 C   0  0  0  0  0  0  0  0  0
    0.3890   -3.2670    0.0000 C   0  0  0  0  0  0  0  0  0
    1.2094   -3.3532    0.0000 C   0  0  0  0  0  0  0  0  0
   -0.2453   -5.3556    0.0000 C   0  0  0  0  0  0  0  0  0
   -0.7302   -6.0230    0.0000 F   0  0  0  0  0  0  0  0  0
   -0.9128   -4.8706    0.0000 F   0  0  0  0  0  0  0  0  0
    0.4221   -5.8405    0.0000 F   0  0  0  0  0  0  0  0  0
    4.1558   -2.9445    0.0000 C   0  0  0  0  0  0  0  0  0
    4.9763   -3.0308    0.0000 C   0  0  0  0  0  0  0  0  0
    5.4612   -2.3633    0.0000 C   0  0  0  0  0  0  0  0  0
    5.2063   -1.5787    0.0000 N   0  0  0  0  0  0  0  0  0
    5.8737   -1.0938    0.0000 N   0  0  0  0  0  0  0  0  0
    6.5412   -1.5787    0.0000 C   0  0  0  0  0  0  0  0  0
    6.2862   -2.3633    0.0000 C   0  0  0  0  0  0  0  0  0
    4.4217   -1.3238    0.0000 C   0  0  0  0  0  0  0  0  0
  1  2  1  0  0  0  0
  2  3  1  0  0  0  0
  2  4  1  0  0  0  0
  2  7  1  0  0  0  0
  4  5  1  0  0  0  0
  5  6  1  0  0  0  0
  6  7  1  0  0  0  0
  6  8  1  0  0  0  0
  8  9  1  0  0  0  0
  9 10  1  0  0  0  0
 10 11  1  0  0  0  0
 11 12  4  0  0  0  0
 11 29  4  0  0  0  0
 12 13  4  0  0  0  0
 13 14  4  0  0  0  0
 14 15  1  0  0  0  0
 14 28  4  0  0  0  0
 15 16  1  0  0  0  0
 16 17  2  0  0  0  0
 16 18  1  0  0  0  0
 18 19  4  0  0  0  0
 18 23  4  0  0  0  0
 19 20  4  0  0  0  0
 20 21  4  0  0  0  0
 20 24  1  0  0  0  0
 21 22  4  0  0  0  0
 22 23  4  0  0  0  0
 24 25  1  0  0  0  0
 24 26  1  0  0  0  0
 24 27  1  0  0  0  0
 28 29  4  0  0  0  0
 29 30  1  0  0  0  0
 30 31  4  0  0  0  0
 30 34  4  0  0  0  0
 31 32  4  0  0  0  0
 31 35  1  0  0  0  0
 32 33  4  0  0  0  0
 33 34  4  0  0  0  0
M  END
>  <Name_Molregno>
631798

>  <5-HT2A>
7.92

>  <5-HT2C>
5.03

$$$$
631799
  Marvin  02231216192D 0   1.00000     0.00000     0

 32 35  0  0  0  0  0  0  0  0999 V2000
    4.3440    1.2481    0.0000 F   0  0  0  0  0  0  0  0  0
    5.0584    0.8356    0.0000 C   0  0  0  0  0  0  0  0  0
    5.7729    1.2481    0.0000 C   0  0  0  0  0  0  0  0  0
    6.4874    0.8356    0.0000 C   0  0  0  0  0  0  0  0  0
    7.2018    1.2481    0.0000 F   0  0  0  0  0  0  0  0  0
    6.4874    0.0106    0.0000 C   0  0  0  0  0  0  0  0  0
    5.7729   -0.4019    0.0000 C   0  0  0  0  0  0  0  0  0
    5.0584    0.0106    0.0000 C   0  0  0  0  0  0  0  0  0
    4.3440   -0.4019    0.0000 C   0  0  0  0  0  0  0  0  0
    3.6295    0.0106    0.0000 O   0  0  0  0  0  0  0  0  0
    4.3440   -1.2269    0.0000 N   0  0  0  0  0  0  0  0  0
    3.6295   -1.6394    0.0000 C   0  0  0  0  0  0  0  0  0
    3.6295   -2.4644    0.0000 C   0  0  0  0  0  0  0  0  0
    2.9150   -2.8769    0.0000 C   0  0  0  0  0  0  0  0  0
    2.9150   -3.7019    0.0000 C   0  0  0  0  0  0  0  0  0
    3.5825   -4.1868    0.0000 N   0  0  0  0  0  0  0  0  0
    3.3275   -4.9714    0.0000 N   0  0  0  0  0  0  0  0  0
    2.5025   -4.9714    0.0000 C   0  0  0  0  0  0  0  0  0
    2.2476   -4.1868    0.0000 C   0  0  0  0  0  0  0  0  0
    4.3671   -3.9319    0.0000 C   0  0  0  0  0  0  0  0  0
    2.2006   -2.4644    0.0000 C   0  0  0  0  0  0  0  0  0
    1.4861   -2.8769    0.0000 O   0  0  0  0  0  0  0  0  0
    0.7716   -2.4644    0.0000 C   0  0  0  0  0  0  0  0  0
    0.0571   -2.8769    0.0000 C   0  0  0  0  0  0  0  0  0
   -0.6573   -2.4644    0.0000 N   0  0  0  0  0  0  0  0  0
   -1.3718   -2.8769    0.0000 C   0  0  0  0  0  0  0  0  0
   -2.0863   -2.4644    0.0000 C   0  0  0  0  0  0  0  0  0
   -2.0863   -1.6394    0.0000 O   0  0  0  0  0  0  0  0  0
   -1.3718   -1.2269    0.0000 C   0  0  0  0  0  0  0  0  0
   -0.6573   -1.6394    0.0000 C   0  0  0  0  0  0  0  0  0
    2.2006   -1.6394    0.0000 C   0  0  0  0  0  0  0  0  0
    2.9150   -1.2269    0.0000 C   0  0  0  0  0  0  0  0  0
  1  2  1  0  0  0  0
  2  3  4  0  0  0  0
  2  8  4  0  0  0  0
  3  4  4  0  0  0  0
  4  5  1  0  0  0  0
  4  6  4  0  0  0  0
  6  7  4  0  0  0  0
  7  8  4  0  0  0  0
  8  9  1  0  0  0  0
  9 10  2  0  0  0  0
  9 11  1  0  0  0  0
 11 12  1  0  0  0  0
 12 13  4  0  0  0  0
 12 32  4  0  0  0  0
 13 14  4  0  0  0  0
 14 15  1  0  0  0  0
 14 21  4  0  0  0  0
 15 16  4  0  0  0  0
 15 19  4  0  0  0  0
 16 17  4  0  0  0  0
 16 20  1  0  0  0  0
 17 18  4  0  0  0  0
 18 19  4  0  0  0  0
 21 22  1  0  0  0  0
 21 31  4  0  0  0  0
 22 23  1  0  0  0  0
 23 24  1  0  0  0  0
 24 25  1  0  0  0  0
 25 26  1  0  0  0  0
 25 30  1  0  0  0  0
 26 27  1  0  0  0  0
 27 28  1  0  0  0  0
 28 29  1  0  0  0  0
 29 30  1  0  0  0  0
 31 32  4  0  0  0  0
M  END
>  <Name_Molregno>
631799

>  <5-HT2A>
8.07

>  <5-HT2C>
5

$$$$
631800
  Marvin  02231216192D 0   1.00000     0.00000     0

 31 34  0  0  0  0  0  0  0  0999 V2000
    7.2285   -1.7937    0.0000 F   0  0  0  0  0  0  0  0  0
    6.5140   -1.3812    0.0000 C   0  0  0  0  0  0  0  0  0
    5.7996   -1.7937    0.0000 C   0  0  0  0  0  0  0  0  0
    5.0851   -1.3812    0.0000 C   0  0  0  0  0  0  0  0  0
    5.0851   -0.5562    0.0000 C   0  0  0  0  0  0  0  0  0
    5.7996   -0.1437    0.0000 C   0  0  0  0  0  0  0  0  0
    6.5140   -0.5562    0.0000 C   0  0  0  0  0  0  0  0  0
    4.3706   -1.7937    0.0000 C   0  0  0  0  0  0  0  0  0
    3.6561   -1.3812    0.0000 O   0  0  0  0  0  0  0  0  0
    4.3706   -2.6187    0.0000 N   0  0  0  0  0  0  0  0  0
    3.6561   -3.0312    0.0000 C   0  0  0  0  0  0  0  0  0
    3.6561   -3.8562    0.0000 C   0  0  0  0  0  0  0  0  0
    2.9417   -4.2687    0.0000 C   0  0  0  0  0  0  0  0  0
    2.9417   -5.0937    0.0000 C   0  0  0  0  0  0  0  0  0
    3.6091   -5.5786    0.0000 N   0  0  0  0  0  0  0  0  0
    3.3542   -6.3633    0.0000 N   0  0  0  0  0  0  0  0  0
    2.5292   -6.3633    0.0000 C   0  0  0  0  0  0  0  0  0
    2.2742   -5.5786    0.0000 C   0  0  0  0  0  0  0  0  0
    4.3937   -5.3237    0.0000 C   0  0  0  0  0  0  0  0  0
    2.2272   -3.8562    0.0000 C   0  0  0  0  0  0  0  0  0
    1.5127   -4.2687    0.0000 O   0  0  0  0  0  0  0  0  0
    0.7983   -3.8562    0.0000 C   0  0  0  0  0  0  0  0  0
    0.0838   -4.2687    0.0000 C   0  0  0  0  0  0  0  0  0
    0.0838   -5.0937    0.0000 N   0  0  0  0  0  0  0  0  0
    0.7983   -5.5062    0.0000 C   0  0  0  0  0  0  0  0  0
    0.7983   -6.3312    0.0000 C   0  0  0  0  0  0  0  0  0
    0.0838   -6.7437    0.0000 O   0  0  0  0  0  0  0  0  0
   -0.6307   -6.3312    0.0000 C   0  0  0  0  0  0  0  0  0
   -0.6307   -5.5062    0.0000 C   0  0  0  0  0  0  0  0  0
    2.2272   -3.0312    0.0000 C   0  0  0  0  0  0  0  0  0
    2.9417   -2.6187    0.0000 C   0  0  0  0  0  0  0  0  0
  1  2  1  0  0  0  0
  2  3  4  0  0  0  0
  2  7  4  0  0  0  0
  3  4  4  0  0  0  0
  4  5  4  0  0  0  0
  4  8  1  0  0  0  0
  5  6  4  0  0  0  0
  6  7  4  0  0  0  0
  8  9  2  0  0  0  0
  8 10  1  0  0  0  0
 10 11  1  0  0  0  0
 11 12  4  0  0  0  0
 11 31  4  0  0  0  0
 12 13  4  0  0  0  0
 13 14  1  0  0  0  0
 13 20  4  0  0  0  0
 14 15  4  0  0  0  0
 14 18  4  0  0  0  0
 15 16  4  0  0  0  0
 15 19  1  0  0  0  0
 16 17  4  0  0  0  0
 17 18  4  0  0  0  0
 20 21  1  0  0  0  0
 20 30  4  0  0  0  0
 21 22  1  0  0  0  0
 22 23  1  0  0  0  0
 23 24  1  0  0  0  0
 24 25  1  0  0  0  0
 24 29  1  0  0  0  0
 25 26  1  0  0  0  0
 26 27  1  0  0  0  0
 27 28  1  0  0  0  0
 28 29  1  0  0  0  0
 30 31  4  0  0  0  0
M  END
>  <Name_Molregno>
631800

>  <5-HT2A>
8.29

>  <5-HT2C>
5

$$$$
631875
  Marvin  02231216192D 0   1.00000     0.00000     0

 31 34  0  0  0  0  0  0  0  0999 V2000
    9.4590    4.0090    0.0000 F   0  0  0  0  0  0  0  0  0
    8.7446    3.5965    0.0000 C   0  0  0  0  0  0  0  0  0
    8.7446    2.7715    0.0000 C   0  0  0  0  0  0  0  0  0
    8.0301    2.3590    0.0000 C   0  0  0  0  0  0  0  0  0
    7.3156    2.7715    0.0000 C   0  0  0  0  0  0  0  0  0
    7.3156    3.5965    0.0000 C   0  0  0  0  0  0  0  0  0
    8.0301    4.0090    0.0000 C   0  0  0  0  0  0  0  0  0
    6.6012    2.3590    0.0000 C   0  0  0  0  0  0  0  0  0
    5.8867    2.7715    0.0000 O   0  0  0  0  0  0  0  0  0
    6.6012    1.5340    0.0000 N   0  0  0  0  0  0  0  0  0
    5.8867    1.1215    0.0000 C   0  0  0  0  0  0  0  0  0
    5.8867    0.2965    0.0000 C   0  0  0  0  0  0  0  0  0
    5.1722   -0.1160    0.0000 C   0  0  0  0  0  0  0  0  0
    5.1722   -0.9410    0.0000 C   0  0  0  0  0  0  0  0  0
    5.8397   -1.4259    0.0000 N   0  0  0  0  0  0  0  0  0
    5.5847   -2.2105    0.0000 N   0  0  0  0  0  0  0  0  0
    4.7597   -2.2105    0.0000 C   0  0  0  0  0  0  0  0  0
    4.5048   -1.4259    0.0000 C   0  0  0  0  0  0  0  0  0
    6.6243   -1.1709    0.0000 C   0  0  0  0  0  0  0  0  0
    4.4577    0.2965    0.0000 C   0  0  0  0  0  0  0  0  0
    3.7433   -0.1160    0.0000 O   0  0  0  0  0  0  0  0  0
    3.0288    0.2965    0.0000 C   0  0  0  0  0  0  0  0  0
    2.3143   -0.1160    0.0000 C   0  0  0  0  0  0  0  0  0
    2.3143   -0.9410    0.0000 N   0  0  0  0  0  0  0  0  0
    3.0288   -1.3535    0.0000 C   0  0  0  0  0  0  0  0  0
    3.0288   -2.1785    0.0000 C   0  0  0  0  0  0  0  0  0
    2.3143   -2.5910    0.0000 O   0  0  0  0  0  0  0  0  0
    1.5999   -2.1785    0.0000 C   0  0  0  0  0  0  0  0  0
    1.5999   -1.3535    0.0000 C   0  0  0  0  0  0  0  0  0
    4.4577    1.1215    0.0000 C   0  0  0  0  0  0  0  0  0
    5.1722    1.5340    0.0000 C   0  0  0  0  0  0  0  0  0
  1  2  1  0  0  0  0
  2  3  4  0  0  0  0
  2  7  4  0  0  0  0
  3  4  4  0  0  0  0
  4  5  4  0  0  0  0
  5  6  4  0  0  0  0
  5  8  1  0  0  0  0
  6  7  4  0  0  0  0
  8  9  2  0  0  0  0
  8 10  1  0  0  0  0
 10 11  1  0  0  0  0
 11 12  4  0  0  0  0
 11 31  4  0  0  0  0
 12 13  4  0  0  0  0
 13 14  1  0  0  0  0
 13 20  4  0  0  0  0
 14 15  4  0  0  0  0
 14 18  4  0  0  0  0
 15 16  4  0  0  0  0
 15 19  1  0  0  0  0
 16 17  4  0  0  0  0
 17 18  4  0  0  0  0
 20 21  1  0  0  0  0
 20 30  4  0  0  0  0
 21 22  1  0  0  0  0
 22 23  1  0  0  0  0
 23 24  1  0  0  0  0
 24 25  1  0  0  0  0
 24 29  1  0  0  0  0
 25 26  1  0  0  0  0
 26 27  1  0  0  0  0
 27 28  1  0  0  0  0
 28 29  1  0  0  0  0
 30 31  4  0  0  0  0
M  END
>  <Name_Molregno>
631875

>  <5-HT2A>
7.74

>  <5-HT2C>
5

$$$$
631876
  Marvin  02231216192D 0   1.00000     0.00000     0

 32 35  0  0  0  0  0  0  0  0999 V2000
    3.9211    2.1419    0.0000 Cl  0  0  0  0  0  0  0  0  0
    3.9211    1.3169    0.0000 C   0  0  0  0  0  0  0  0  0
    4.5885    0.8320    0.0000 C   0  0  0  0  0  0  0  0  0
    4.3336    0.0474    0.0000 N   0  0  0  0  0  0  0  0  0
    3.5086    0.0474    0.0000 N   0  0  0  0  0  0  0  0  0
    3.0236   -0.6201    0.0000 C   0  0  0  0  0  0  0  0  0
    3.2536    0.8320    0.0000 C   0  0  0  0  0  0  0  0  0
    2.4690    1.0869    0.0000 C   0  0  0  0  0  0  0  0  0
    2.2975    1.8939    0.0000 C   0  0  0  0  0  0  0  0  0
    1.5129    2.1488    0.0000 C   0  0  0  0  0  0  0  0  0
    1.3413    2.9558    0.0000 N   0  0  0  0  0  0  0  0  0
    1.9544    3.5079    0.0000 C   0  0  0  0  0  0  0  0  0
    2.7391    3.2529    0.0000 O   0  0  0  0  0  0  0  0  0
    1.7829    4.3148    0.0000 C   0  0  0  0  0  0  0  0  0
    2.3960    4.8669    0.0000 C   0  0  0  0  0  0  0  0  0
    2.2245    5.6738    0.0000 C   0  0  0  0  0  0  0  0  0
    2.8376    6.2259    0.0000 F   0  0  0  0  0  0  0  0  0
    1.4398    5.9288    0.0000 C   0  0  0  0  0  0  0  0  0
    0.8268    5.3767    0.0000 C   0  0  0  0  0  0  0  0  0
    0.9983    4.5698    0.0000 C   0  0  0  0  0  0  0  0  0
    0.8998    1.5968    0.0000 C   0  0  0  0  0  0  0  0  0
    1.0713    0.7898    0.0000 C   0  0  0  0  0  0  0  0  0
    1.8559    0.5349    0.0000 C   0  0  0  0  0  0  0  0  0
    2.0274   -0.2721    0.0000 O   0  0  0  0  0  0  0  0  0
    1.4143   -0.8241    0.0000 C   0  0  0  0  0  0  0  0  0
    1.5859   -1.6311    0.0000 C   0  0  0  0  0  0  0  0  0
    0.9728   -2.1831    0.0000 N   0  0  0  0  0  0  0  0  0
    1.1443   -2.9901    0.0000 C   0  0  0  0  0  0  0  0  0
    0.5312   -3.5421    0.0000 C   0  0  0  0  0  0  0  0  0
   -0.2534   -3.2872    0.0000 O   0  0  0  0  0  0  0  0  0
   -0.4249   -2.4802    0.0000 C   0  0  0  0  0  0  0  0  0
    0.1882   -1.9282    0.0000 C   0  0  0  0  0  0  0  0  0
  1  2  1  0  0  0  0
  2  3  4  0  0  0  0
  2  7  4  0  0  0  0
  3  4  4  0  0  0  0
  4  5  4  0  0  0  0
  5  6  1  0  0  0  0
  5  7  4  0  0  0  0
  7  8  1  0  0  0  0
  8  9  4  0  0  0  0
  8 23  4  0  0  0  0
  9 10  4  0  0  0  0
 10 11  1  0  0  0  0
 10 21  4  0  0  0  0
 11 12  1  0  0  0  0
 12 13  2  0  0  0  0
 12 14  1  0  0  0  0
 14 15  4  0  0  0  0
 14 20  4  0  0  0  0
 15 16  4  0  0  0  0
 16 17  1  0  0  0  0
 16 18  4  0  0  0  0
 18 19  4  0  0  0  0
 19 20  4  0  0  0  0
 21 22  4  0  0  0  0
 22 23  4  0  0  0  0
 23 24  1  0  0  0  0
 24 25  1  0  0  0  0
 25 26  1  0  0  0  0
 26 27  1  0  0  0  0
 27 28  1  0  0  0  0
 27 32  1  0  0  0  0
 28 29  1  0  0  0  0
 29 30  1  0  0  0  0
 30 31  1  0  0  0  0
 31 32  1  0  0  0  0
M  END
>  <Name_Molregno>
631876

>  <5-HT2A>
9.22

>  <5-HT2C>
5.47

$$$$
631877
  Marvin  02231216192D 0   1.00000     0.00000     0

 34 37  0  0  0  0  0  0  0  0999 V2000
    9.3045    3.3096    0.0000 F   0  0  0  0  0  0  0  0  0
    8.5900    2.8971    0.0000 C   0  0  0  0  0  0  0  0  0
    8.1775    3.6116    0.0000 F   0  0  0  0  0  0  0  0  0
    9.0025    2.1827    0.0000 F   0  0  0  0  0  0  0  0  0
    7.8755    2.4846    0.0000 C   0  0  0  0  0  0  0  0  0
    7.8755    1.6596    0.0000 C   0  0  0  0  0  0  0  0  0
    7.1611    1.2471    0.0000 C   0  0  0  0  0  0  0  0  0
    6.4466    1.6596    0.0000 C   0  0  0  0  0  0  0  0  0
    6.4466    2.4846    0.0000 C   0  0  0  0  0  0  0  0  0
    7.1611    2.8971    0.0000 C   0  0  0  0  0  0  0  0  0
    5.7321    1.2471    0.0000 C   0  0  0  0  0  0  0  0  0
    5.0177    1.6596    0.0000 O   0  0  0  0  0  0  0  0  0
    5.7321    0.4221    0.0000 N   0  0  0  0  0  0  0  0  0
    5.0177    0.0096    0.0000 C   0  0  0  0  0  0  0  0  0
    5.0177   -0.8154    0.0000 C   0  0  0  0  0  0  0  0  0
    4.3032   -1.2279    0.0000 C   0  0  0  0  0  0  0  0  0
    4.3032   -2.0529    0.0000 C   0  0  0  0  0  0  0  0  0
    4.9706   -2.5378    0.0000 N   0  0  0  0  0  0  0  0  0
    4.7157   -3.3224    0.0000 N   0  0  0  0  0  0  0  0  0
    3.8907   -3.3224    0.0000 C   0  0  0  0  0  0  0  0  0
    3.6358   -2.5378    0.0000 C   0  0  0  0  0  0  0  0  0
    5.7553   -2.2829    0.0000 C   0  0  0  0  0  0  0  0  0
    3.5887   -0.8154    0.0000 C   0  0  0  0  0  0  0  0  0
    2.8742   -1.2279    0.0000 O   0  0  0  0  0  0  0  0  0
    2.1598   -0.8154    0.0000 C   0  0  0  0  0  0  0  0  0
    1.4453   -1.2279    0.0000 C   0  0  0  0  0  0  0  0  0
    1.4453   -2.0529    0.0000 N   0  0  0  0  0  0  0  0  0
    2.1598   -2.4654    0.0000 C   0  0  0  0  0  0  0  0  0
    2.1598   -3.2904    0.0000 C   0  0  0  0  0  0  0  0  0
    1.4453   -3.7029    0.0000 O   0  0  0  0  0  0  0  0  0
    0.7308   -3.2904    0.0000 C   0  0  0  0  0  0  0  0  0
    0.7308   -2.4654    0.0000 C   0  0  0  0  0  0  0  0  0
    3.5887    0.0096    0.0000 C   0  0  0  0  0  0  0  0  0
    4.3032    0.4221    0.0000 C   0  0  0  0  0  0  0  0  0
  1  2  1  0  0  0  0
  2  3  1  0  0  0  0
  2  4  1  0  0  0  0
  2  5  1  0  0  0  0
  5  6  4  0  0  0  0
  5 10  4  0  0  0  0
  6  7  4  0  0  0  0
  7  8  4  0  0  0  0
  8  9  4  0  0  0  0
  8 11  1  0  0  0  0
  9 10  4  0  0  0  0
 11 12  2  0  0  0  0
 11 13  1  0  0  0  0
 13 14  1  0  0  0  0
 14 15  4  0  0  0  0
 14 34  4  0  0  0  0
 15 16  4  0  0  0  0
 16 17  1  0  0  0  0
 16 23  4  0  0  0  0
 17 18  4  0  0  0  0
 17 21  4  0  0  0  0
 18 19  4  0  0  0  0
 18 22  1  0  0  0  0
 19 20  4  0  0  0  0
 20 21  4  0  0  0  0
 23 24  1  0  0  0  0
 23 33  4  0  0  0  0
 24 25  1  0  0  0  0
 25 26  1  0  0  0  0
 26 27  1  0  0  0  0
 27 28  1  0  0  0  0
 27 32  1  0  0  0  0
 28 29  1  0  0  0  0
 29 30  1  0  0  0  0
 30 31  1  0  0  0  0
 31 32  1  0  0  0  0
 33 34  4  0  0  0  0
M  END
>  <Name_Molregno>
631877

>  <5-HT2A>
8.62

>  <5-HT2C>
5.23

$$$$
631878
  Marvin  02231216192D 0   1.00000     0.00000     0

 34 37  0  0  0  0  0  0  0  0999 V2000
    0.0529   -0.9383    0.0000 F   0  0  0  0  0  0  0  0  0
   -0.6615   -0.5258    0.0000 C   0  0  0  0  0  0  0  0  0
   -0.2490    0.1887    0.0000 F   0  0  0  0  0  0  0  0  0
   -1.0740   -1.2403    0.0000 F   0  0  0  0  0  0  0  0  0
   -1.3760   -0.1133    0.0000 C   0  0  0  0  0  0  0  0  0
   -2.0905   -0.5258    0.0000 C   0  0  0  0  0  0  0  0  0
   -2.8050   -0.1133    0.0000 C   0  0  0  0  0  0  0  0  0
   -2.8050    0.7117    0.0000 C   0  0  0  0  0  0  0  0  0
   -2.0905    1.1242    0.0000 C   0  0  0  0  0  0  0  0  0
   -1.3760    0.7117    0.0000 C   0  0  0  0  0  0  0  0  0
   -3.5194   -0.5258    0.0000 C   0  0  0  0  0  0  0  0  0
   -4.2339   -0.1133    0.0000 O   0  0  0  0  0  0  0  0  0
   -3.5194   -1.3508    0.0000 N   0  0  0  0  0  0  0  0  0
   -4.2339   -1.7633    0.0000 C   0  0  0  0  0  0  0  0  0
   -4.2339   -2.5883    0.0000 C   0  0  0  0  0  0  0  0  0
   -4.9484   -3.0008    0.0000 C   0  0  0  0  0  0  0  0  0
   -4.9484   -3.8258    0.0000 C   0  0  0  0  0  0  0  0  0
   -4.2809   -4.3107    0.0000 N   0  0  0  0  0  0  0  0  0
   -4.5359   -5.0953    0.0000 N   0  0  0  0  0  0  0  0  0
   -5.3609   -5.0953    0.0000 C   0  0  0  0  0  0  0  0  0
   -5.6158   -4.3107    0.0000 C   0  0  0  0  0  0  0  0  0
   -3.4963   -4.0558    0.0000 C   0  0  0  0  0  0  0  0  0
   -5.6628   -2.5883    0.0000 C   0  0  0  0  0  0  0  0  0
   -6.3773   -3.0008    0.0000 O   0  0  0  0  0  0  0  0  0
   -7.0918   -2.5883    0.0000 C   0  0  0  0  0  0  0  0  0
   -7.8063   -3.0008    0.0000 C   0  0  0  0  0  0  0  0  0
   -7.8063   -3.8258    0.0000 N   0  0  0  0  0  0  0  0  0
   -7.0918   -4.2383    0.0000 C   0  0  0  0  0  0  0  0  0
   -7.0918   -5.0633    0.0000 C   0  0  0  0  0  0  0  0  0
   -7.8063   -5.4758    0.0000 O   0  0  0  0  0  0  0  0  0
   -8.5207   -5.0633    0.0000 C   0  0  0  0  0  0  0  0  0
   -8.5207   -4.2383    0.0000 C   0  0  0  0  0  0  0  0  0
   -5.6628   -1.7633    0.0000 C   0  0  0  0  0  0  0  0  0
   -4.9484   -1.3508    0.0000 C   0  0  0  0  0  0  0  0  0
  1  2  1  0  0  0  0
  2  3  1  0  0  0  0
  2  4  1  0  0  0  0
  2  5  1  0  0  0  0
  5  6  4  0  0  0  0
  5 10  4  0  0  0  0
  6  7  4  0  0  0  0
  7  8  4  0  0  0  0
  7 11  1  0  0  0  0
  8  9  4  0  0  0  0
  9 10  4  0  0  0  0
 11 12  2  0  0  0  0
 11 13  1  0  0  0  0
 13 14  1  0  0  0  0
 14 15  4  0  0  0  0
 14 34  4  0  0  0  0
 15 16  4  0  0  0  0
 16 17  1  0  0  0  0
 16 23  4  0  0  0  0
 17 18  4  0  0  0  0
 17 21  4  0  0  0  0
 18 19  4  0  0  0  0
 18 22  1  0  0  0  0
 19 20  4  0  0  0  0
 20 21  4  0  0  0  0
 23 24  1  0  0  0  0
 23 33  4  0  0  0  0
 24 25  1  0  0  0  0
 25 26  1  0  0  0  0
 26 27  1  0  0  0  0
 27 28  1  0  0  0  0
 27 32  1  0  0  0  0
 28 29  1  0  0  0  0
 29 30  1  0  0  0  0
 30 31  1  0  0  0  0
 31 32  1  0  0  0  0
 33 34  4  0  0  0  0
M  END
>  <Name_Molregno>
631878

>  <5-HT2A>
9.15

>  <5-HT2C>
5

$$$$
631949
  Marvin  02231216192D 0   1.00000     0.00000     0

 32 35  0  0  0  0  0  0  0  0999 V2000
    8.3751    0.0607    0.0000 F   0  0  0  0  0  0  0  0  0
    7.6607    0.4732    0.0000 C   0  0  0  0  0  0  0  0  0
    6.9462    0.0607    0.0000 C   0  0  0  0  0  0  0  0  0
    6.2317    0.4732    0.0000 C   0  0  0  0  0  0  0  0  0
    6.2317    1.2982    0.0000 C   0  0  0  0  0  0  0  0  0
    6.9462    1.7107    0.0000 C   0  0  0  0  0  0  0  0  0
    7.6607    1.2982    0.0000 C   0  0  0  0  0  0  0  0  0
    8.3751    1.7107    0.0000 F   0  0  0  0  0  0  0  0  0
    5.5172    0.0607    0.0000 C   0  0  0  0  0  0  0  0  0
    4.8028    0.4732    0.0000 O   0  0  0  0  0  0  0  0  0
    5.5172   -0.7643    0.0000 N   0  0  0  0  0  0  0  0  0
    4.8028   -1.1768    0.0000 C   0  0  0  0  0  0  0  0  0
    4.8028   -2.0018    0.0000 C   0  0  0  0  0  0  0  0  0
    4.0883   -2.4143    0.0000 C   0  0  0  0  0  0  0  0  0
    4.0883   -3.2393    0.0000 C   0  0  0  0  0  0  0  0  0
    4.7557   -3.7242    0.0000 N   0  0  0  0  0  0  0  0  0
    4.5008   -4.5088    0.0000 N   0  0  0  0  0  0  0  0  0
    3.6758   -4.5088    0.0000 C   0  0  0  0  0  0  0  0  0
    3.4209   -3.7242    0.0000 C   0  0  0  0  0  0  0  0  0
    5.5404   -3.4693    0.0000 C   0  0  0  0  0  0  0  0  0
    3.3738   -2.0018    0.0000 C   0  0  0  0  0  0  0  0  0
    2.6594   -2.4143    0.0000 O   0  0  0  0  0  0  0  0  0
    1.9449   -2.0018    0.0000 C   0  0  0  0  0  0  0  0  0
    1.2304   -2.4143    0.0000 C   0  0  0  0  0  0  0  0  0
    1.2304   -3.2393    0.0000 N   0  0  0  0  0  0  0  0  0
    1.9449   -3.6518    0.0000 C   0  0  0  0  0  0  0  0  0
    1.9449   -4.4768    0.0000 C   0  0  0  0  0  0  0  0  0
    1.2304   -4.8893    0.0000 O   0  0  0  0  0  0  0  0  0
    0.5159   -4.4768    0.0000 C   0  0  0  0  0  0  0  0  0
    0.5159   -3.6518    0.0000 C   0  0  0  0  0  0  0  0  0
    3.3738   -1.1768    0.0000 C   0  0  0  0  0  0  0  0  0
    4.0883   -0.7643    0.0000 C   0  0  0  0  0  0  0  0  0
  1  2  1  0  0  0  0
  2  3  4  0  0  0  0
  2  7  4  0  0  0  0
  3  4  4  0  0  0  0
  4  5  4  0  0  0  0
  4  9  1  0  0  0  0
  5  6  4  0  0  0  0
  6  7  4  0  0  0  0
  7  8  1  0  0  0  0
  9 10  2  0  0  0  0
  9 11  1  0  0  0  0
 11 12  1  0  0  0  0
 12 13  4  0  0  0  0
 12 32  4  0  0  0  0
 13 14  4  0  0  0  0
 14 15  1  0  0  0  0
 14 21  4  0  0  0  0
 15 16  4  0  0  0  0
 15 19  4  0  0  0  0
 16 17  4  0  0  0  0
 16 20  1  0  0  0  0
 17 18  4  0  0  0  0
 18 19  4  0  0  0  0
 21 22  1  0  0  0  0
 21 31  4  0  0  0  0
 22 23  1  0  0  0  0
 23 24  1  0  0  0  0
 24 25  1  0  0  0  0
 25 26  1  0  0  0  0
 25 30  1  0  0  0  0
 26 27  1  0  0  0  0
 27 28  1  0  0  0  0
 28 29  1  0  0  0  0
 29 30  1  0  0  0  0
 31 32  4  0  0  0  0
M  END
>  <Name_Molregno>
631949

>  <5-HT2A>
8.39

>  <5-HT2C>
5

$$$$
631950
  Marvin  02231216192D 0   1.00000     0.00000     0

 32 35  0  0  0  0  0  0  0  0999 V2000
   -6.5951   -6.5473    0.0000 O   0  0  0  0  0  0  0  0  0
   -7.3096   -6.1348    0.0000 C   0  0  0  0  0  0  0  0  0
   -7.3096   -5.3098    0.0000 C   0  0  0  0  0  0  0  0  0
   -6.5951   -4.8973    0.0000 N   0  0  0  0  0  0  0  0  0
   -5.8806   -5.3098    0.0000 C   0  0  0  0  0  0  0  0  0
   -5.8806   -6.1348    0.0000 C   0  0  0  0  0  0  0  0  0
   -6.5951   -4.0723    0.0000 C   0  0  0  0  0  0  0  0  0
   -5.8806   -3.6598    0.0000 C   0  0  0  0  0  0  0  0  0
   -5.8806   -2.8348    0.0000 O   0  0  0  0  0  0  0  0  0
   -5.1662   -2.4223    0.0000 C   0  0  0  0  0  0  0  0  0
   -5.1662   -1.5973    0.0000 C   0  0  0  0  0  0  0  0  0
   -4.4517   -1.1848    0.0000 C   0  0  0  0  0  0  0  0  0
   -3.7372   -1.5973    0.0000 C   0  0  0  0  0  0  0  0  0
   -3.0227   -1.1848    0.0000 N   0  0  0  0  0  0  0  0  0
   -3.0227   -0.3598    0.0000 C   0  0  0  0  0  0  0  0  0
   -3.7372    0.0527    0.0000 O   0  0  0  0  0  0  0  0  0
   -2.3083    0.0527    0.0000 C   0  0  0  0  0  0  0  0  0
   -2.3083    0.8777    0.0000 C   0  0  0  0  0  0  0  0  0
   -1.5938    1.2902    0.0000 C   0  0  0  0  0  0  0  0  0
   -1.5938    2.1152    0.0000 O   0  0  0  0  0  0  0  0  0
   -0.8793    2.5277    0.0000 C   0  0  0  0  0  0  0  0  0
   -0.8793    0.8777    0.0000 C   0  0  0  0  0  0  0  0  0
   -0.8793    0.0527    0.0000 C   0  0  0  0  0  0  0  0  0
   -1.5938   -0.3598    0.0000 C   0  0  0  0  0  0  0  0  0
   -3.7372   -2.4223    0.0000 C   0  0  0  0  0  0  0  0  0
   -4.4517   -2.8348    0.0000 C   0  0  0  0  0  0  0  0  0
   -4.4517   -3.6598    0.0000 C   0  0  0  0  0  0  0  0  0
   -3.7843   -4.1448    0.0000 N   0  0  0  0  0  0  0  0  0
   -4.0392   -4.9294    0.0000 N   0  0  0  0  0  0  0  0  0
   -4.8642   -4.9294    0.0000 C   0  0  0  0  0  0  0  0  0
   -5.1191   -4.1448    0.0000 C   0  0  0  0  0  0  0  0  0
   -2.9996   -3.8898    0.0000 C   0  0  0  0  0  0  0  0  0
  1  2  1  0  0  0  0
  1  6  1  0  0  0  0
  2  3  1  0  0  0  0
  3  4  1  0  0  0  0
  4  5  1  0  0  0  0
  4  7  1  0  0  0  0
  5  6  1  0  0  0  0
  7  8  1  0  0  0  0
  8  9  1  0  0  0  0
  9 10  1  0  0  0  0
 10 11  4  0  0  0  0
 10 26  4  0  0  0  0
 11 12  4  0  0  0  0
 12 13  4  0  0  0  0
 13 14  1  0  0  0  0
 13 25  4  0  0  0  0
 14 15  1  0  0  0  0
 15 16  2  0  0  0  0
 15 17  1  0  0  0  0
 17 18  4  0  0  0  0
 17 24  4  0  0  0  0
 18 19  4  0  0  0  0
 19 20  1  0  0  0  0
 19 22  4  0  0  0  0
 20 21  1  0  0  0  0
 22 23  4  0  0  0  0
 23 24  4  0  0  0  0
 25 26  4  0  0  0  0
 26 27  1  0  0  0  0
 27 28  4  0  0  0  0
 27 31  4  0  0  0  0
 28 29  4  0  0  0  0
 28 32  1  0  0  0  0
 29 30  4  0  0  0  0
 30 31  4  0  0  0  0
M  END
>  <Name_Molregno>
631950

>  <5-HT2A>
8.31

>  <5-HT2C>
5

$$$$
631951
  Marvin  02231216192D 0   1.00000     0.00000     0

 35 38  0  0  0  0  0  0  0  0999 V2000
    0.3047   -1.2765    0.0000 F   0  0  0  0  0  0  0  0  0
   -0.4098   -0.8640    0.0000 C   0  0  0  0  0  0  0  0  0
    0.0027   -0.1496    0.0000 F   0  0  0  0  0  0  0  0  0
   -0.8223   -1.5785    0.0000 F   0  0  0  0  0  0  0  0  0
   -1.1243   -0.4515    0.0000 C   0  0  0  0  0  0  0  0  0
   -1.8387   -0.8640    0.0000 C   0  0  0  0  0  0  0  0  0
   -2.5532   -0.4515    0.0000 C   0  0  0  0  0  0  0  0  0
   -2.5532    0.3735    0.0000 C   0  0  0  0  0  0  0  0  0
   -1.8387    0.7860    0.0000 C   0  0  0  0  0  0  0  0  0
   -1.1243    0.3735    0.0000 C   0  0  0  0  0  0  0  0  0
   -3.2677   -0.8640    0.0000 C   0  0  0  0  0  0  0  0  0
   -3.9822   -0.4515    0.0000 O   0  0  0  0  0  0  0  0  0
   -3.2677   -1.6890    0.0000 N   0  0  0  0  0  0  0  0  0
   -3.9822   -2.1015    0.0000 C   0  0  0  0  0  0  0  0  0
   -3.9822   -2.9265    0.0000 C   0  0  0  0  0  0  0  0  0
   -4.6966   -3.3390    0.0000 C   0  0  0  0  0  0  0  0  0
   -4.6966   -4.1640    0.0000 C   0  0  0  0  0  0  0  0  0
   -4.0292   -4.6489    0.0000 N   0  0  0  0  0  0  0  0  0
   -4.2841   -5.4336    0.0000 N   0  0  0  0  0  0  0  0  0
   -5.1091   -5.4336    0.0000 C   0  0  0  0  0  0  0  0  0
   -5.3641   -4.6489    0.0000 C   0  0  0  0  0  0  0  0  0
   -3.2446   -4.3940    0.0000 C   0  0  0  0  0  0  0  0  0
   -5.4111   -2.9265    0.0000 C   0  0  0  0  0  0  0  0  0
   -6.1256   -3.3390    0.0000 O   0  0  0  0  0  0  0  0  0
   -6.8400   -2.9265    0.0000 C   0  0  0  0  0  0  0  0  0
   -7.5545   -3.3390    0.0000 C   0  0  0  0  0  0  0  0  0
   -8.2690   -2.9265    0.0000 N   0  0  0  0  0  0  0  0  0
   -8.9835   -3.3390    0.0000 C   0  0  0  0  0  0  0  0  0
   -9.6979   -2.9265    0.0000 C   0  0  0  0  0  0  0  0  0
  -10.4124   -3.3390    0.0000 O   0  0  0  0  0  0  0  0  0
   -9.6979   -2.1015    0.0000 N   0  0  0  0  0  0  0  0  0
   -8.9835   -1.6890    0.0000 C   0  0  0  0  0  0  0  0  0
   -8.2690   -2.1015    0.0000 C   0  0  0  0  0  0  0  0  0
   -5.4111   -2.1015    0.0000 C   0  0  0  0  0  0  0  0  0
   -4.6966   -1.6890    0.0000 C   0  0  0  0  0  0  0  0  0
  1  2  1  0  0  0  0
  2  3  1  0  0  0  0
  2  4  1  0  0  0  0
  2  5  1  0  0  0  0
  5  6  4  0  0  0  0
  5 10  4  0  0  0  0
  6  7  4  0  0  0  0
  7  8  4  0  0  0  0
  7 11  1  0  0  0  0
  8  9  4  0  0  0  0
  9 10  4  0  0  0  0
 11 12  2  0  0  0  0
 11 13  1  0  0  0  0
 13 14  1  0  0  0  0
 14 15  4  0  0  0  0
 14 35  4  0  0  0  0
 15 16  4  0  0  0  0
 16 17  1  0  0  0  0
 16 23  4  0  0  0  0
 17 18  4  0  0  0  0
 17 21  4  0  0  0  0
 18 19  4  0  0  0  0
 18 22  1  0  0  0  0
 19 20  4  0  0  0  0
 20 21  4  0  0  0  0
 23 24  1  0  0  0  0
 23 34  4  0  0  0  0
 24 25  1  0  0  0  0
 25 26  1  0  0  0  0
 26 27  1  0  0  0  0
 27 28  1  0  0  0  0
 27 33  1  0  0  0  0
 28 29  1  0  0  0  0
 29 30  2  0  0  0  0
 29 31  1  0  0  0  0
 31 32  1  0  0  0  0
 32 33  1  0  0  0  0
 34 35  4  0  0  0  0
M  END
>  <Name_Molregno>
631951

>  <5-HT2A>
6.54

>  <5-HT2C>
5

$$$$
631952
  Marvin  02231216192D 0   1.00000     0.00000     0

 36 39  0  0  0  0  0  0  0  0999 V2000
    4.3681    1.6036    0.0000 Cl  0  0  0  0  0  0  0  0  0
    4.3681    0.7786    0.0000 C   0  0  0  0  0  0  0  0  0
    5.0356    0.2937    0.0000 C   0  0  0  0  0  0  0  0  0
    4.7806   -0.4910    0.0000 N   0  0  0  0  0  0  0  0  0
    3.9556   -0.4910    0.0000 N   0  0  0  0  0  0  0  0  0
    3.4707   -1.1584    0.0000 C   0  0  0  0  0  0  0  0  0
    3.7007    0.2937    0.0000 C   0  0  0  0  0  0  0  0  0
    2.9161    0.5486    0.0000 C   0  0  0  0  0  0  0  0  0
    2.7445    1.3556    0.0000 C   0  0  0  0  0  0  0  0  0
    1.9599    1.6105    0.0000 C   0  0  0  0  0  0  0  0  0
    1.7884    2.4175    0.0000 N   0  0  0  0  0  0  0  0  0
    2.4015    2.9695    0.0000 C   0  0  0  0  0  0  0  0  0
    3.1861    2.7146    0.0000 O   0  0  0  0  0  0  0  0  0
    2.2299    3.7765    0.0000 C   0  0  0  0  0  0  0  0  0
    2.8430    4.3285    0.0000 C   0  0  0  0  0  0  0  0  0
    2.6715    5.1355    0.0000 C   0  0  0  0  0  0  0  0  0
    1.8869    5.3904    0.0000 C   0  0  0  0  0  0  0  0  0
    1.2738    4.8384    0.0000 C   0  0  0  0  0  0  0  0  0
    1.4453    4.0314    0.0000 C   0  0  0  0  0  0  0  0  0
    3.2846    5.6875    0.0000 C   0  0  0  0  0  0  0  0  0
    3.8977    6.2396    0.0000 F   0  0  0  0  0  0  0  0  0
    3.8366    5.0744    0.0000 F   0  0  0  0  0  0  0  0  0
    2.7326    6.3006    0.0000 F   0  0  0  0  0  0  0  0  0
    1.3468    1.0585    0.0000 C   0  0  0  0  0  0  0  0  0
    1.5183    0.2515    0.0000 C   0  0  0  0  0  0  0  0  0
    2.3030   -0.0034    0.0000 C   0  0  0  0  0  0  0  0  0
    2.4745   -0.8104    0.0000 O   0  0  0  0  0  0  0  0  0
    1.8614   -1.3624    0.0000 C   0  0  0  0  0  0  0  0  0
    2.0329   -2.1694    0.0000 C   0  0  0  0  0  0  0  0  0
    1.4198   -2.7214    0.0000 N   0  0  0  0  0  0  0  0  0
    1.5914   -3.5284    0.0000 C   0  0  0  0  0  0  0  0  0
    0.9783   -4.0804    0.0000 C   0  0  0  0  0  0  0  0  0
    1.1498   -4.8874    0.0000 O   0  0  0  0  0  0  0  0  0
    0.1936   -3.8255    0.0000 N   0  0  0  0  0  0  0  0  0
    0.0221   -3.0185    0.0000 C   0  0  0  0  0  0  0  0  0
    0.6352   -2.4665    0.0000 C   0  0  0  0  0  0  0  0  0
  1  2  1  0  0  0  0
  2  3  4  0  0  0  0
  2  7  4  0  0  0  0
  3  4  4  0  0  0  0
  4  5  4  0  0  0  0
  5  6  1  0  0  0  0
  5  7  4  0  0  0  0
  7  8  1  0  0  0  0
  8  9  4  0  0  0  0
  8 26  4  0  0  0  0
  9 10  4  0  0  0  0
 10 11  1  0  0  0  0
 10 24  4  0  0  0  0
 11 12  1  0  0  0  0
 12 13  2  0  0  0  0
 12 14  1  0  0  0  0
 14 15  4  0  0  0  0
 14 19  4  0  0  0  0
 15 16  4  0  0  0  0
 16 17  4  0  0  0  0
 16 20  1  0  0  0  0
 17 18  4  0  0  0  0
 18 19  4  0  0  0  0
 20 21  1  0  0  0  0
 20 22  1  0  0  0  0
 20 23  1  0  0  0  0
 24 25  4  0  0  0  0
 25 26  4  0  0  0  0
 26 27  1  0  0  0  0
 27 28  1  0  0  0  0
 28 29  1  0  0  0  0
 29 30  1  0  0  0  0
 30 31  1  0  0  0  0
 30 36  1  0  0  0  0
 31 32  1  0  0  0  0
 32 33  2  0  0  0  0
 32 34  1  0  0  0  0
 34 35  1  0  0  0  0
 35 36  1  0  0  0  0
M  END
>  <Name_Molregno>
631952

>  <5-HT2A>
8.28

>  <5-HT2C>
5

$$$$
632013
  Marvin  02231216192D 0   1.00000     0.00000     0

 37 40  0  0  0  0  0  0  0  0999 V2000
   -1.1309    1.5143    0.0000 F   0  0  0  0  0  0  0  0  0
   -1.1309    0.6893    0.0000 C   0  0  0  0  0  0  0  0  0
   -0.3059    0.6893    0.0000 F   0  0  0  0  0  0  0  0  0
   -1.9559    0.6893    0.0000 F   0  0  0  0  0  0  0  0  0
   -1.1309   -0.1357    0.0000 C   0  0  0  0  0  0  0  0  0
   -1.8453   -0.5482    0.0000 C   0  0  0  0  0  0  0  0  0
   -1.8453   -1.3732    0.0000 C   0  0  0  0  0  0  0  0  0
   -1.1309   -1.7857    0.0000 C   0  0  0  0  0  0  0  0  0
   -0.4164   -1.3732    0.0000 C   0  0  0  0  0  0  0  0  0
   -0.4164   -0.5482    0.0000 C   0  0  0  0  0  0  0  0  0
   -2.5598   -1.7857    0.0000 C   0  0  0  0  0  0  0  0  0
   -2.5598   -2.6107    0.0000 O   0  0  0  0  0  0  0  0  0
   -3.2743   -1.3732    0.0000 N   0  0  0  0  0  0  0  0  0
   -3.9887   -1.7857    0.0000 C   0  0  0  0  0  0  0  0  0
   -3.9887   -2.6107    0.0000 C   0  0  0  0  0  0  0  0  0
   -4.7032   -3.0232    0.0000 C   0  0  0  0  0  0  0  0  0
   -4.7032   -3.8482    0.0000 C   0  0  0  0  0  0  0  0  0
   -4.0358   -4.3331    0.0000 N   0  0  0  0  0  0  0  0  0
   -4.2907   -5.1177    0.0000 N   0  0  0  0  0  0  0  0  0
   -5.1157   -5.1177    0.0000 C   0  0  0  0  0  0  0  0  0
   -5.3707   -4.3331    0.0000 C   0  0  0  0  0  0  0  0  0
   -3.2512   -4.0782    0.0000 C   0  0  0  0  0  0  0  0  0
   -5.4177   -2.6107    0.0000 C   0  0  0  0  0  0  0  0  0
   -6.1322   -3.0232    0.0000 O   0  0  0  0  0  0  0  0  0
   -6.8466   -2.6107    0.0000 C   0  0  0  0  0  0  0  0  0
   -7.5611   -3.0232    0.0000 C   0  0  0  0  0  0  0  0  0
   -8.2756   -2.6107    0.0000 N   0  0  0  0  0  0  0  0  0
   -8.9900   -3.0232    0.0000 C   0  0  0  0  0  0  0  0  0
   -9.7045   -2.6107    0.0000 C   0  0  0  0  0  0  0  0  0
   -9.7045   -1.7857    0.0000 N   0  0  0  0  0  0  0  0  0
   -8.9900   -1.3732    0.0000 C   0  0  0  0  0  0  0  0  0
   -8.2756   -1.7857    0.0000 C   0  0  0  0  0  0  0  0  0
  -10.4190   -1.3732    0.0000 C   0  0  0  0  0  0  0  0  0
  -11.1335   -1.7857    0.0000 O   0  0  0  0  0  0  0  0  0
  -10.4190   -0.5482    0.0000 C   0  0  0  0  0  0  0  0  0
   -5.4177   -1.7857    0.0000 C   0  0  0  0  0  0  0  0  0
   -4.7032   -1.3732    0.0000 C   0  0  0  0  0  0  0  0  0
  1  2  1  0  0  0  0
  2  3  1  0  0  0  0
  2  4  1  0  0  0  0
  2  5  1  0  0  0  0
  5  6  4  0  0  0  0
  5 10  4  0  0  0  0
  6  7  4  0  0  0  0
  7  8  4  0  0  0  0
  7 11  1  0  0  0  0
  8  9  4  0  0  0  0
  9 10  4  0  0  0  0
 11 12  2  0  0  0  0
 11 13  1  0  0  0  0
 13 14  1  0  0  0  0
 14 15  4  0  0  0  0
 14 37  4  0  0  0  0
 15 16  4  0  0  0  0
 16 17  1  0  0  0  0
 16 23  4  0  0  0  0
 17 18  4  0  0  0  0
 17 21  4  0  0  0  0
 18 19  4  0  0  0  0
 18 22  1  0  0  0  0
 19 20  4  0  0  0  0
 20 21  4  0  0  0  0
 23 24  1  0  0  0  0
 23 36  4  0  0  0  0
 24 25  1  0  0  0  0
 25 26  1  0  0  0  0
 26 27  1  0  0  0  0
 27 28  1  0  0  0  0
 27 32  1  0  0  0  0
 28 29  1  0  0  0  0
 29 30  1  0  0  0  0
 30 31  1  0  0  0  0
 30 33  1  0  0  0  0
 31 32  1  0  0  0  0
 33 34  2  0  0  0  0
 33 35  1  0  0  0  0
 36 37  4  0  0  0  0
M  END
>  <Name_Molregno>
632013

>  <5-HT2A>
8.37

>  <5-HT2C>
5.25

$$$$
632014
  Marvin  02231216192D 0   1.00000     0.00000     0

 34 37  0  0  0  0  0  0  0  0999 V2000
    7.5840   -0.7862    0.0000 F   0  0  0  0  0  0  0  0  0
    7.5840   -1.6112    0.0000 C   0  0  0  0  0  0  0  0  0
    6.8695   -2.0237    0.0000 C   0  0  0  0  0  0  0  0  0
    6.8695   -2.8487    0.0000 C   0  0  0  0  0  0  0  0  0
    7.5840   -3.2612    0.0000 C   0  0  0  0  0  0  0  0  0
    8.2985   -2.8487    0.0000 C   0  0  0  0  0  0  0  0  0
    8.2985   -2.0237    0.0000 C   0  0  0  0  0  0  0  0  0
    6.1551   -3.2612    0.0000 C   0  0  0  0  0  0  0  0  0
    6.1551   -4.0862    0.0000 O   0  0  0  0  0  0  0  0  0
    5.4406   -2.8487    0.0000 N   0  0  0  0  0  0  0  0  0
    4.7261   -3.2612    0.0000 C   0  0  0  0  0  0  0  0  0
    4.7261   -4.0862    0.0000 C   0  0  0  0  0  0  0  0  0
    4.0117   -4.4987    0.0000 C   0  0  0  0  0  0  0  0  0
    4.0117   -5.3237    0.0000 C   0  0  0  0  0  0  0  0  0
    4.6791   -5.8087    0.0000 N   0  0  0  0  0  0  0  0  0
    4.4242   -6.5933    0.0000 N   0  0  0  0  0  0  0  0  0
    3.5992   -6.5933    0.0000 C   0  0  0  0  0  0  0  0  0
    3.3442   -5.8087    0.0000 C   0  0  0  0  0  0  0  0  0
    5.4637   -5.5537    0.0000 C   0  0  0  0  0  0  0  0  0
    3.2972   -4.0862    0.0000 C   0  0  0  0  0  0  0  0  0
    2.5827   -4.4987    0.0000 O   0  0  0  0  0  0  0  0  0
    1.8682   -4.0862    0.0000 C   0  0  0  0  0  0  0  0  0
    1.1538   -4.4987    0.0000 C   0  0  0  0  0  0  0  0  0
    0.4393   -4.0862    0.0000 N   0  0  0  0  0  0  0  0  0
   -0.2752   -4.4987    0.0000 C   0  0  0  0  0  0  0  0  0
   -0.9896   -4.0862    0.0000 C   0  0  0  0  0  0  0  0  0
   -0.9896   -3.2612    0.0000 N   0  0  0  0  0  0  0  0  0
   -0.2752   -2.8487    0.0000 C   0  0  0  0  0  0  0  0  0
    0.4393   -3.2612    0.0000 C   0  0  0  0  0  0  0  0  0
   -1.7041   -2.8487    0.0000 C   0  0  0  0  0  0  0  0  0
   -2.4186   -3.2612    0.0000 O   0  0  0  0  0  0  0  0  0
   -1.7041   -2.0237    0.0000 C   0  0  0  0  0  0  0  0  0
    3.2972   -3.2612    0.0000 C   0  0  0  0  0  0  0  0  0
    4.0117   -2.8487    0.0000 C   0  0  0  0  0  0  0  0  0
  1  2  1  0  0  0  0
  2  3  4  0  0  0  0
  2  7  4  0  0  0  0
  3  4  4  0  0  0  0
  4  5  4  0  0  0  0
  4  8  1  0  0  0  0
  5  6  4  0  0  0  0
  6  7  4  0  0  0  0
  8  9  2  0  0  0  0
  8 10  1  0  0  0  0
 10 11  1  0  0  0  0
 11 12  4  0  0  0  0
 11 34  4  0  0  0  0
 12 13  4  0  0  0  0
 13 14  1  0  0  0  0
 13 20  4  0  0  0  0
 14 15  4  0  0  0  0
 14 18  4  0  0  0  0
 15 16  4  0  0  0  0
 15 19  1  0  0  0  0
 16 17  4  0  0  0  0
 17 18  4  0  0  0  0
 20 21  1  0  0  0  0
 20 33  4  0  0  0  0
 21 22  1  0  0  0  0
 22 23  1  0  0  0  0
 23 24  1  0  0  0  0
 24 25  1  0  0  0  0
 24 29  1  0  0  0  0
 25 26  1  0  0  0  0
 26 27  1  0  0  0  0
 27 28  1  0  0  0  0
 27 30  1  0  0  0  0
 28 29  1  0  0  0  0
 30 31  2  0  0  0  0
 30 32  1  0  0  0  0
 33 34  4  0  0  0  0
M  END
>  <Name_Molregno>
632014

>  <5-HT2A>
7.82

>  <5-HT2C>
5

$$$$
632015
  Marvin  02231216192D 0   1.00000     0.00000     0

 35 38  0  0  0  0  0  0  0  0999 V2000
    3.4381   -0.4819    0.0000 Cl  0  0  0  0  0  0  0  0  0
    3.4381   -1.3069    0.0000 C   0  0  0  0  0  0  0  0  0
    4.1055   -1.7918    0.0000 C   0  0  0  0  0  0  0  0  0
    3.8506   -2.5765    0.0000 N   0  0  0  0  0  0  0  0  0
    3.0256   -2.5765    0.0000 N   0  0  0  0  0  0  0  0  0
    2.5407   -3.2439    0.0000 C   0  0  0  0  0  0  0  0  0
    2.7706   -1.7918    0.0000 C   0  0  0  0  0  0  0  0  0
    1.9860   -1.5369    0.0000 C   0  0  0  0  0  0  0  0  0
    1.8145   -0.7299    0.0000 C   0  0  0  0  0  0  0  0  0
    1.0299   -0.4750    0.0000 C   0  0  0  0  0  0  0  0  0
    0.8583    0.3320    0.0000 N   0  0  0  0  0  0  0  0  0
    1.4714    0.8840    0.0000 C   0  0  0  0  0  0  0  0  0
    2.2561    0.6291    0.0000 O   0  0  0  0  0  0  0  0  0
    1.2999    1.6910    0.0000 C   0  0  0  0  0  0  0  0  0
    1.9130    2.2430    0.0000 C   0  0  0  0  0  0  0  0  0
    1.7415    3.0500    0.0000 C   0  0  0  0  0  0  0  0  0
    2.3546    3.6020    0.0000 F   0  0  0  0  0  0  0  0  0
    0.9569    3.3049    0.0000 C   0  0  0  0  0  0  0  0  0
    0.3438    2.7529    0.0000 C   0  0  0  0  0  0  0  0  0
    0.5153    1.9459    0.0000 C   0  0  0  0  0  0  0  0  0
    0.4168   -1.0270    0.0000 C   0  0  0  0  0  0  0  0  0
    0.5883   -1.8340    0.0000 C   0  0  0  0  0  0  0  0  0
    1.3729   -2.0889    0.0000 C   0  0  0  0  0  0  0  0  0
    1.5445   -2.8959    0.0000 O   0  0  0  0  0  0  0  0  0
    0.9314   -3.4479    0.0000 C   0  0  0  0  0  0  0  0  0
    1.1029   -4.2549    0.0000 C   0  0  0  0  0  0  0  0  0
    0.4898   -4.8069    0.0000 N   0  0  0  0  0  0  0  0  0
    0.6613   -5.6139    0.0000 C   0  0  0  0  0  0  0  0  0
    0.0482   -6.1659    0.0000 C   0  0  0  0  0  0  0  0  0
   -0.7364   -5.9110    0.0000 N   0  0  0  0  0  0  0  0  0
   -0.9079   -5.1040    0.0000 C   0  0  0  0  0  0  0  0  0
   -0.2948   -4.5520    0.0000 C   0  0  0  0  0  0  0  0  0
   -1.3495   -6.4630    0.0000 C   0  0  0  0  0  0  0  0  0
   -1.1780   -7.2700    0.0000 O   0  0  0  0  0  0  0  0  0
   -2.1341   -6.2081    0.0000 C   0  0  0  0  0  0  0  0  0
  1  2  1  0  0  0  0
  2  3  4  0  0  0  0
  2  7  4  0  0  0  0
  3  4  4  0  0  0  0
  4  5  4  0  0  0  0
  5  6  1  0  0  0  0
  5  7  4  0  0  0  0
  7  8  1  0  0  0  0
  8  9  4  0  0  0  0
  8 23  4  0  0  0  0
  9 10  4  0  0  0  0
 10 11  1  0  0  0  0
 10 21  4  0  0  0  0
 11 12  1  0  0  0  0
 12 13  2  0  0  0  0
 12 14  1  0  0  0  0
 14 15  4  0  0  0  0
 14 20  4  0  0  0  0
 15 16  4  0  0  0  0
 16 17  1  0  0  0  0
 16 18  4  0  0  0  0
 18 19  4  0  0  0  0
 19 20  4  0  0  0  0
 21 22  4  0  0  0  0
 22 23  4  0  0  0  0
 23 24  1  0  0  0  0
 24 25  1  0  0  0  0
 25 26  1  0  0  0  0
 26 27  1  0  0  0  0
 27 28  1  0  0  0  0
 27 32  1  0  0  0  0
 28 29  1  0  0  0  0
 29 30  1  0  0  0  0
 30 31  1  0  0  0  0
 30 33  1  0  0  0  0
 31 32  1  0  0  0  0
 33 34  2  0  0  0  0
 33 35  1  0  0  0  0
M  END
>  <Name_Molregno>
632015

>  <5-HT2A>
8.66

>  <5-HT2C>
5.07

$$$$
632016
  Marvin  02231216192D 0   1.00000     0.00000     0

 35 38  0  0  0  0  0  0  0  0999 V2000
   -2.8505   -0.6618    0.0000 O   0  0  0  0  0  0  0  0  0
   -2.8505   -1.4868    0.0000 C   0  0  0  0  0  0  0  0  0
   -3.5650   -1.8993    0.0000 C   0  0  0  0  0  0  0  0  0
   -3.5650   -2.7243    0.0000 N   0  0  0  0  0  0  0  0  0
   -2.8505   -3.1368    0.0000 C   0  0  0  0  0  0  0  0  0
   -2.8505   -3.9618    0.0000 C   0  0  0  0  0  0  0  0  0
   -3.5650   -4.3743    0.0000 N   0  0  0  0  0  0  0  0  0
   -4.2794   -3.9618    0.0000 C   0  0  0  0  0  0  0  0  0
   -4.2794   -3.1368    0.0000 C   0  0  0  0  0  0  0  0  0
   -3.5650   -5.1993    0.0000 C   0  0  0  0  0  0  0  0  0
   -4.2794   -5.6118    0.0000 O   0  0  0  0  0  0  0  0  0
   -2.8505   -5.6118    0.0000 C   0  0  0  0  0  0  0  0  0
   -2.1360   -0.2493    0.0000 C   0  0  0  0  0  0  0  0  0
   -2.1360    0.5757    0.0000 C   0  0  0  0  0  0  0  0  0
   -1.4215    0.9882    0.0000 C   0  0  0  0  0  0  0  0  0
   -0.7071    0.5757    0.0000 C   0  0  0  0  0  0  0  0  0
    0.0074    0.9882    0.0000 N   0  0  0  0  0  0  0  0  0
    0.0074    1.8132    0.0000 C   0  0  0  0  0  0  0  0  0
   -0.7071    2.2257    0.0000 O   0  0  0  0  0  0  0  0  0
    0.7219    2.2257    0.0000 C   0  0  0  0  0  0  0  0  0
    0.7219    3.0507    0.0000 C   0  0  0  0  0  0  0  0  0
    1.4363    3.4632    0.0000 C   0  0  0  0  0  0  0  0  0
    1.4363    4.2882    0.0000 O   0  0  0  0  0  0  0  0  0
    2.1508    4.7007    0.0000 C   0  0  0  0  0  0  0  0  0
    2.1508    3.0507    0.0000 C   0  0  0  0  0  0  0  0  0
    2.1508    2.2257    0.0000 C   0  0  0  0  0  0  0  0  0
    1.4363    1.8132    0.0000 C   0  0  0  0  0  0  0  0  0
   -0.7071   -0.2493    0.0000 C   0  0  0  0  0  0  0  0  0
   -1.4215   -0.6618    0.0000 C   0  0  0  0  0  0  0  0  0
   -1.4215   -1.4868    0.0000 C   0  0  0  0  0  0  0  0  0
   -0.7541   -1.9717    0.0000 N   0  0  0  0  0  0  0  0  0
   -1.0090   -2.7564    0.0000 N   0  0  0  0  0  0  0  0  0
   -1.8340   -2.7564    0.0000 C   0  0  0  0  0  0  0  0  0
   -2.0890   -1.9717    0.0000 C   0  0  0  0  0  0  0  0  0
    0.0305   -1.7168    0.0000 C   0  0  0  0  0  0  0  0  0
  1  2  1  0  0  0  0
  1 13  1  0  0  0  0
  2  3  1  0  0  0  0
  3  4  1  0  0  0  0
  4  5  1  0  0  0  0
  4  9  1  0  0  0  0
  5  6  1  0  0  0  0
  6  7  1  0  0  0  0
  7  8  1  0  0  0  0
  7 10  1  0  0  0  0
  8  9  1  0  0  0  0
 10 11  2  0  0  0  0
 10 12  1  0  0  0  0
 13 14  4  0  0  0  0
 13 29  4  0  0  0  0
 14 15  4  0  0  0  0
 15 16  4  0  0  0  0
 16 17  1  0  0  0  0
 16 28  4  0  0  0  0
 17 18  1  0  0  0  0
 18 19  2  0  0  0  0
 18 20  1  0  0  0  0
 20 21  4  0  0  0  0
 20 27  4  0  0  0  0
 21 22  4  0  0  0  0
 22 23  1  0  0  0  0
 22 25  4  0  0  0  0
 23 24  1  0  0  0  0
 25 26  4  0  0  0  0
 26 27  4  0  0  0  0
 28 29  4  0  0  0  0
 29 30  1  0  0  0  0
 30 31  4  0  0  0  0
 30 34  4  0  0  0  0
 31 32  4  0  0  0  0
 31 35  1  0  0  0  0
 32 33  4  0  0  0  0
 33 34  4  0  0  0  0
M  END
>  <Name_Molregno>
632016

>  <5-HT2A>
8.35

>  <5-HT2C>
5

$$$$
632068
  Marvin  02231216192D 0   1.00000     0.00000     0

 35 38  0  0  0  0  0  0  0  0999 V2000
   -2.8505   -0.6618    0.0000 O   0  0  0  0  0  0  0  0  0
   -2.8505   -1.4868    0.0000 C   0  0  0  0  0  0  0  0  0
   -3.5650   -1.8993    0.0000 C   0  0  0  0  0  0  0  0  0
   -3.5650   -2.7243    0.0000 N   0  0  0  0  0  0  0  0  0
   -2.8505   -3.1368    0.0000 C   0  0  0  0  0  0  0  0  0
   -2.8505   -3.9618    0.0000 C   0  0  0  0  0  0  0  0  0
   -3.5650   -4.3743    0.0000 N   0  0  0  0  0  0  0  0  0
   -4.2794   -3.9618    0.0000 C   0  0  0  0  0  0  0  0  0
   -4.2794   -3.1368    0.0000 C   0  0  0  0  0  0  0  0  0
   -3.5650   -5.1993    0.0000 C   0  0  0  0  0  0  0  0  0
   -4.2794   -5.6118    0.0000 O   0  0  0  0  0  0  0  0  0
   -2.8505   -5.6118    0.0000 N   0  0  0  0  0  0  0  0  0
   -2.1360   -0.2493    0.0000 C   0  0  0  0  0  0  0  0  0
   -2.1360    0.5757    0.0000 C   0  0  0  0  0  0  0  0  0
   -1.4215    0.9882    0.0000 C   0  0  0  0  0  0  0  0  0
   -0.7071    0.5757    0.0000 C   0  0  0  0  0  0  0  0  0
    0.0074    0.9882    0.0000 N   0  0  0  0  0  0  0  0  0
    0.0074    1.8132    0.0000 C   0  0  0  0  0  0  0  0  0
   -0.7071    2.2257    0.0000 O   0  0  0  0  0  0  0  0  0
    0.7219    2.2257    0.0000 C   0  0  0  0  0  0  0  0  0
    0.7219    3.0507    0.0000 C   0  0  0  0  0  0  0  0  0
    1.4363    3.4632    0.0000 C   0  0  0  0  0  0  0  0  0
    1.4363    4.2882    0.0000 O   0  0  0  0  0  0  0  0  0
    2.1508    4.7007    0.0000 C   0  0  0  0  0  0  0  0  0
    2.1508    3.0507    0.0000 C   0  0  0  0  0  0  0  0  0
    2.1508    2.2257    0.0000 C   0  0  0  0  0  0  0  0  0
    1.4363    1.8132    0.0000 C   0  0  0  0  0  0  0  0  0
   -0.7071   -0.2493    0.0000 C   0  0  0  0  0  0  0  0  0
   -1.4215   -0.6618    0.0000 C   0  0  0  0  0  0  0  0  0
   -1.4215   -1.4868    0.0000 C   0  0  0  0  0  0  0  0  0
   -0.7541   -1.9717    0.0000 N   0  0  0  0  0  0  0  0  0
   -1.0090   -2.7564    0.0000 N   0  0  0  0  0  0  0  0  0
   -1.8340   -2.7564    0.0000 C   0  0  0  0  0  0  0  0  0
   -2.0890   -1.9717    0.0000 C   0  0  0  0  0  0  0  0  0
    0.0305   -1.7168    0.0000 C   0  0  0  0  0  0  0  0  0
  1  2  1  0  0  0  0
  1 13  1  0  0  0  0
  2  3  1  0  0  0  0
  3  4  1  0  0  0  0
  4  5  1  0  0  0  0
  4  9  1  0  0  0  0
  5  6  1  0  0  0  0
  6  7  1  0  0  0  0
  7  8  1  0  0  0  0
  7 10  1  0  0  0  0
  8  9  1  0  0  0  0
 10 11  2  0  0  0  0
 10 12  1  0  0  0  0
 13 14  4  0  0  0  0
 13 29  4  0  0  0  0
 14 15  4  0  0  0  0
 15 16  4  0  0  0  0
 16 17  1  0  0  0  0
 16 28  4  0  0  0  0
 17 18  1  0  0  0  0
 18 19  2  0  0  0  0
 18 20  1  0  0  0  0
 20 21  4  0  0  0  0
 20 27  4  0  0  0  0
 21 22  4  0  0  0  0
 22 23  1  0  0  0  0
 22 25  4  0  0  0  0
 23 24  1  0  0  0  0
 25 26  4  0  0  0  0
 26 27  4  0  0  0  0
 28 29  4  0  0  0  0
 29 30  1  0  0  0  0
 30 31  4  0  0  0  0
 30 34  4  0  0  0  0
 31 32  4  0  0  0  0
 31 35  1  0  0  0  0
 32 33  4  0  0  0  0
 33 34  4  0  0  0  0
M  END
>  <Name_Molregno>
632068

>  <5-HT2A>
8.29

>  <5-HT2C>
5.23

$$$$
632069
  Marvin  02231216192D 0   1.00000     0.00000     0

 36 39  0  0  0  0  0  0  0  0999 V2000
    2.7079   -3.9039    0.0000 S   0  0  0  0  0  0  0  0  0
    2.7079   -4.7289    0.0000 O   0  0  0  0  0  0  0  0  0
    3.5329   -3.9039    0.0000 O   0  0  0  0  0  0  0  0  0
    2.7079   -3.0789    0.0000 N   0  0  0  0  0  0  0  0  0
    1.9934   -2.6664    0.0000 C   0  0  0  0  0  0  0  0  0
    1.9934   -1.8414    0.0000 C   0  0  0  0  0  0  0  0  0
    2.7079   -1.4289    0.0000 N   0  0  0  0  0  0  0  0  0
    3.4223   -1.8414    0.0000 C   0  0  0  0  0  0  0  0  0
    3.4223   -2.6664    0.0000 C   0  0  0  0  0  0  0  0  0
    2.7079   -0.6039    0.0000 C   0  0  0  0  0  0  0  0  0
    3.4223   -0.1914    0.0000 C   0  0  0  0  0  0  0  0  0
    3.4223    0.6336    0.0000 O   0  0  0  0  0  0  0  0  0
    4.1368    1.0461    0.0000 C   0  0  0  0  0  0  0  0  0
    4.1368    1.8711    0.0000 C   0  0  0  0  0  0  0  0  0
    4.8513    2.2836    0.0000 C   0  0  0  0  0  0  0  0  0
    5.5657    1.8711    0.0000 C   0  0  0  0  0  0  0  0  0
    6.2802    2.2836    0.0000 N   0  0  0  0  0  0  0  0  0
    6.2802    3.1086    0.0000 C   0  0  0  0  0  0  0  0  0
    5.5657    3.5211    0.0000 O   0  0  0  0  0  0  0  0  0
    6.9947    3.5211    0.0000 C   0  0  0  0  0  0  0  0  0
    6.9947    4.3461    0.0000 C   0  0  0  0  0  0  0  0  0
    7.7092    4.7586    0.0000 C   0  0  0  0  0  0  0  0  0
    7.7092    5.5836    0.0000 O   0  0  0  0  0  0  0  0  0
    8.4236    5.9961    0.0000 C   0  0  0  0  0  0  0  0  0
    8.4236    4.3461    0.0000 C   0  0  0  0  0  0  0  0  0
    8.4236    3.5211    0.0000 C   0  0  0  0  0  0  0  0  0
    7.7092    3.1086    0.0000 C   0  0  0  0  0  0  0  0  0
    5.5657    1.0461    0.0000 C   0  0  0  0  0  0  0  0  0
    4.8513    0.6336    0.0000 C   0  0  0  0  0  0  0  0  0
    4.8513   -0.1914    0.0000 C   0  0  0  0  0  0  0  0  0
    5.5187   -0.6763    0.0000 N   0  0  0  0  0  0  0  0  0
    5.2638   -1.4609    0.0000 N   0  0  0  0  0  0  0  0  0
    4.4388   -1.4609    0.0000 C   0  0  0  0  0  0  0  0  0
    4.1838   -0.6763    0.0000 C   0  0  0  0  0  0  0  0  0
    6.3033   -0.4214    0.0000 C   0  0  0  0  0  0  0  0  0
    1.8829   -3.9039    0.0000 C   0  0  0  0  0  0  0  0  0
  1  2  2  0  0  0  0
  1  3  2  0  0  0  0
  1  4  1  0  0  0  0
  1 36  1  0  0  0  0
  4  5  1  0  0  0  0
  4  9  1  0  0  0  0
  5  6  1  0  0  0  0
  6  7  1  0  0  0  0
  7  8  1  0  0  0  0
  7 10  1  0  0  0  0
  8  9  1  0  0  0  0
 10 11  1  0  0  0  0
 11 12  1  0  0  0  0
 12 13  1  0  0  0  0
 13 14  4  0  0  0  0
 13 29  4  0  0  0  0
 14 15  4  0  0  0  0
 15 16  4  0  0  0  0
 16 17  1  0  0  0  0
 16 28  4  0  0  0  0
 17 18  1  0  0  0  0
 18 19  2  0  0  0  0
 18 20  1  0  0  0  0
 20 21  4  0  0  0  0
 20 27  4  0  0  0  0
 21 22  4  0  0  0  0
 22 23  1  0  0  0  0
 22 25  4  0  0  0  0
 23 24  1  0  0  0  0
 25 26  4  0  0  0  0
 26 27  4  0  0  0  0
 28 29  4  0  0  0  0
 29 30  1  0  0  0  0
 30 31  4  0  0  0  0
 30 34  4  0  0  0  0
 31 32  4  0  0  0  0
 31 35  1  0  0  0  0
 32 33  4  0  0  0  0
 33 34  4  0  0  0  0
M  END
>  <Name_Molregno>
632069

>  <5-HT2A>
7.55

>  <5-HT2C>
5

$$$$
632070
  Marvin  02231216192D 0   1.00000     0.00000     0

 30 32  0  0  0  0  0  0  0  0999 V2000
   -0.4027   -1.4502    0.0000 O   0  0  0  0  0  0  0  0  0
    0.3117   -1.0377    0.0000 C   0  0  0  0  0  0  0  0  0
    1.0262   -1.4502    0.0000 C   0  0  0  0  0  0  0  0  0
    1.7407   -1.0377    0.0000 N   0  0  0  0  0  0  0  0  0
    2.4552   -1.4502    0.0000 C   0  0  0  0  0  0  0  0  0
    3.1696   -1.0377    0.0000 C   0  0  0  0  0  0  0  0  0
    3.8841   -1.4502    0.0000 O   0  0  0  0  0  0  0  0  0
   -1.1172   -1.0377    0.0000 C   0  0  0  0  0  0  0  0  0
   -1.8317   -1.4502    0.0000 C   0  0  0  0  0  0  0  0  0
   -2.5461   -1.0377    0.0000 C   0  0  0  0  0  0  0  0  0
   -2.5461   -0.2127    0.0000 C   0  0  0  0  0  0  0  0  0
   -3.2606    0.1998    0.0000 N   0  0  0  0  0  0  0  0  0
   -3.9751   -0.2127    0.0000 C   0  0  0  0  0  0  0  0  0
   -3.9751   -1.0377    0.0000 O   0  0  0  0  0  0  0  0  0
   -4.6896    0.1998    0.0000 C   0  0  0  0  0  0  0  0  0
   -5.4040   -0.2127    0.0000 C   0  0  0  0  0  0  0  0  0
   -6.1185    0.1998    0.0000 C   0  0  0  0  0  0  0  0  0
   -6.8330   -0.2127    0.0000 O   0  0  0  0  0  0  0  0  0
   -6.8330   -1.0377    0.0000 C   0  0  0  0  0  0  0  0  0
   -6.1185    1.0248    0.0000 C   0  0  0  0  0  0  0  0  0
   -5.4040    1.4373    0.0000 C   0  0  0  0  0  0  0  0  0
   -4.6896    1.0248    0.0000 C   0  0  0  0  0  0  0  0  0
   -1.8317    0.1998    0.0000 C   0  0  0  0  0  0  0  0  0
   -1.1172   -0.2127    0.0000 C   0  0  0  0  0  0  0  0  0
   -0.4027    0.1998    0.0000 C   0  0  0  0  0  0  0  0  0
   -0.3165    1.0203    0.0000 N   0  0  0  0  0  0  0  0  0
    0.4905    1.1918    0.0000 N   0  0  0  0  0  0  0  0  0
    0.9030    0.4774    0.0000 C   0  0  0  0  0  0  0  0  0
    0.3509   -0.1357    0.0000 C   0  0  0  0  0  0  0  0  0
   -0.9296    1.5723    0.0000 C   0  0  0  0  0  0  0  0  0
  1  2  1  0  0  0  0
  1  8  1  0  0  0  0
  2  3  1  0  0  0  0
  3  4  1  0  0  0  0
  4  5  1  0  0  0  0
  5  6  1  0  0  0  0
  6  7  1  0  0  0  0
  8  9  4  0  0  0  0
  8 24  4  0  0  0  0
  9 10  4  0  0  0  0
 10 11  4  0  0  0  0
 11 12  1  0  0  0  0
 11 23  4  0  0  0  0
 12 13  1  0  0  0  0
 13 14  2  0  0  0  0
 13 15  1  0  0  0  0
 15 16  4  0  0  0  0
 15 22  4  0  0  0  0
 16 17  4  0  0  0  0
 17 18  1  0  0  0  0
 17 20  4  0  0  0  0
 18 19  1  0  0  0  0
 20 21  4  0  0  0  0
 21 22  4  0  0  0  0
 23 24  4  0  0  0  0
 24 25  1  0  0  0  0
 25 26  4  0  0  0  0
 25 29  4  0  0  0  0
 26 27  4  0  0  0  0
 26 30  1  0  0  0  0
 27 28  4  0  0  0  0
 28 29  4  0  0  0  0
M  END
>  <Name_Molregno>
632070

>  <5-HT2A>
8.74

>  <5-HT2C>
5.23

$$$$
632071
  Marvin  02231216192D 0   1.00000     0.00000     0

 27 29  0  0  0  0  0  0  0  0999 V2000
    0.1802   -0.9204    0.0000 O   0  0  0  0  0  0  0  0  0
    0.1802   -1.7454    0.0000 C   0  0  0  0  0  0  0  0  0
   -0.5342   -2.1579    0.0000 C   0  0  0  0  0  0  0  0  0
   -0.5342   -2.9829    0.0000 N   0  0  0  0  0  0  0  0  0
    0.8947   -0.5079    0.0000 C   0  0  0  0  0  0  0  0  0
    0.8947    0.3171    0.0000 C   0  0  0  0  0  0  0  0  0
    1.6092    0.7296    0.0000 C   0  0  0  0  0  0  0  0  0
    2.3236    0.3171    0.0000 C   0  0  0  0  0  0  0  0  0
    3.0381    0.7296    0.0000 N   0  0  0  0  0  0  0  0  0
    3.0381    1.5546    0.0000 C   0  0  0  0  0  0  0  0  0
    2.3236    1.9671    0.0000 O   0  0  0  0  0  0  0  0  0
    3.7526    1.9671    0.0000 C   0  0  0  0  0  0  0  0  0
    3.7526    2.7921    0.0000 C   0  0  0  0  0  0  0  0  0
    4.4671    3.2046    0.0000 C   0  0  0  0  0  0  0  0  0
    4.4671    4.0296    0.0000 O   0  0  0  0  0  0  0  0  0
    5.1815    4.4421    0.0000 C   0  0  0  0  0  0  0  0  0
    5.1815    2.7921    0.0000 C   0  0  0  0  0  0  0  0  0
    5.1815    1.9671    0.0000 C   0  0  0  0  0  0  0  0  0
    4.4671    1.5546    0.0000 C   0  0  0  0  0  0  0  0  0
    2.3236   -0.5079    0.0000 C   0  0  0  0  0  0  0  0  0
    1.6092   -0.9204    0.0000 C   0  0  0  0  0  0  0  0  0
    1.6092   -1.7454    0.0000 C   0  0  0  0  0  0  0  0  0
    2.2766   -2.2303    0.0000 N   0  0  0  0  0  0  0  0  0
    2.0217   -3.0149    0.0000 N   0  0  0  0  0  0  0  0  0
    1.1967   -3.0149    0.0000 C   0  0  0  0  0  0  0  0  0
    0.9417   -2.2303    0.0000 C   0  0  0  0  0  0  0  0  0
    3.0612   -1.9754    0.0000 C   0  0  0  0  0  0  0  0  0
  1  2  1  0  0  0  0
  1  5  1  0  0  0  0
  2  3  1  0  0  0  0
  3  4  1  0  0  0  0
  5  6  4  0  0  0  0
  5 21  4  0  0  0  0
  6  7  4  0  0  0  0
  7  8  4  0  0  0  0
  8  9  1  0  0  0  0
  8 20  4  0  0  0  0
  9 10  1  0  0  0  0
 10 11  2  0  0  0  0
 10 12  1  0  0  0  0
 12 13  4  0  0  0  0
 12 19  4  0  0  0  0
 13 14  4  0  0  0  0
 14 15  1  0  0  0  0
 14 17  4  0  0  0  0
 15 16  1  0  0  0  0
 17 18  4  0  0  0  0
 18 19  4  0  0  0  0
 20 21  4  0  0  0  0
 21 22  1  0  0  0  0
 22 23  4  0  0  0  0
 22 26  4  0  0  0  0
 23 24  4  0  0  0  0
 23 27  1  0  0  0  0
 24 25  4  0  0  0  0
 25 26  4  0  0  0  0
M  END
>  <Name_Molregno>
632071

>  <5-HT2A>
8.66

>  <5-HT2C>
5.63

$$$$
632791
  Marvin  02231216192D 0   1.00000     0.00000     0

 29 32  0  0  0  0  0  0  0  0999 V2000
   -1.9999   -1.5075    0.0000 S   0  0  0  0  0  0  0  0  0
   -2.8249   -1.5075    0.0000 O   0  0  0  0  0  0  0  0  0
   -1.1749   -1.5075    0.0000 O   0  0  0  0  0  0  0  0  0
   -1.9999   -0.6825    0.0000 N   0  0  0  0  0  0  0  0  0
   -2.7144   -0.2700    0.0000 C   0  0  0  0  0  0  0  0  0
   -2.7144    0.5550    0.0000 C   0  0  0  0  0  0  0  0  0
   -1.9999    0.9675    0.0000 C   0  0  0  0  0  0  0  0  0
   -1.2854    0.5550    0.0000 C   0  0  0  0  0  0  0  0  0
   -1.2854   -0.2700    0.0000 C   0  0  0  0  0  0  0  0  0
   -1.9999    1.7925    0.0000 C   0  0  0  0  0  0  0  0  0
   -1.2854    2.2050    0.0000 C   0  0  0  0  0  0  0  0  0
   -1.2854    3.0300    0.0000 C   0  0  0  0  0  0  0  0  0
   -1.9999    3.4425    0.0000 C   0  0  0  0  0  0  0  0  0
   -1.9999    4.2675    0.0000 C   0  0  0  0  0  0  0  0  0
   -1.2854    4.6800    0.0000 C   0  0  0  0  0  0  0  0  0
   -1.2854    5.5050    0.0000 F   0  0  0  0  0  0  0  0  0
   -0.5710    4.2675    0.0000 C   0  0  0  0  0  0  0  0  0
   -0.5710    3.4425    0.0000 C   0  0  0  0  0  0  0  0  0
    0.1435    3.0300    0.0000 F   0  0  0  0  0  0  0  0  0
   -1.9999   -2.3325    0.0000 C   0  0  0  0  0  0  0  0  0
   -1.2854   -2.7450    0.0000 C   0  0  0  0  0  0  0  0  0
   -0.5710   -2.3325    0.0000 N   0  0  0  0  0  0  0  0  0
    0.1435   -2.7450    0.0000 C   0  0  0  0  0  0  0  0  0
    0.1435   -3.5700    0.0000 C   0  0  0  0  0  0  0  0  0
   -0.5710   -3.9825    0.0000 C   0  0  0  0  0  0  0  0  0
   -1.2854   -3.5700    0.0000 C   0  0  0  0  0  0  0  0  0
   -1.9999   -3.9825    0.0000 C   0  0  0  0  0  0  0  0  0
   -2.7144   -3.5700    0.0000 C   0  0  0  0  0  0  0  0  0
   -2.7144   -2.7450    0.0000 C   0  0  0  0  0  0  0  0  0
  1  2  2  0  0  0  0
  1  3  2  0  0  0  0
  1  4  1  0  0  0  0
  1 20  1  0  0  0  0
  4  5  1  0  0  0  0
  4  9  1  0  0  0  0
  5  6  1  0  0  0  0
  6  7  1  0  0  0  0
  7  8  1  0  0  0  0
  7 10  1  0  0  0  0
  8  9  1  0  0  0  0
 10 11  1  0  0  0  0
 11 12  1  0  0  0  0
 12 13  4  0  0  0  0
 12 18  4  0  0  0  0
 13 14  4  0  0  0  0
 14 15  4  0  0  0  0
 15 16  1  0  0  0  0
 15 17  4  0  0  0  0
 17 18  4  0  0  0  0
 18 19  1  0  0  0  0
 20 21  4  0  0  0  0
 20 29  4  0  0  0  0
 21 22  4  0  0  0  0
 21 26  4  0  0  0  0
 22 23  4  0  0  0  0
 23 24  4  0  0  0  0
 24 25  4  0  0  0  0
 25 26  4  0  0  0  0
 26 27  4  0  0  0  0
 27 28  4  0  0  0  0
 28 29  4  0  0  0  0
M  END
>  <Name_Molregno>
632791

>  <5-HT2A>
8.68

>  <5-HT2C>
6.74

$$$$
632792
  Marvin  02231216192D 0   1.00000     0.00000     0

 25 27  0  0  0  0  0  0  0  0999 V2000
   -2.2308    1.7237    0.0000 S   0  0  0  0  0  0  0  0  0
   -1.4058    1.7237    0.0000 O   0  0  0  0  0  0  0  0  0
   -3.0558    1.7237    0.0000 O   0  0  0  0  0  0  0  0  0
   -2.2308    0.8987    0.0000 C   0  0  0  0  0  0  0  0  0
   -1.5163    0.4862    0.0000 C   0  0  0  0  0  0  0  0  0
   -1.5163   -0.3388    0.0000 C   0  0  0  0  0  0  0  0  0
   -2.2308   -0.7513    0.0000 C   0  0  0  0  0  0  0  0  0
   -2.9453   -0.3388    0.0000 C   0  0  0  0  0  0  0  0  0
   -2.9453    0.4862    0.0000 C   0  0  0  0  0  0  0  0  0
   -2.2308   -1.5763    0.0000 C   0  0  0  0  0  0  0  0  0
   -1.5163   -1.9888    0.0000 C   0  0  0  0  0  0  0  0  0
   -1.5163   -2.8138    0.0000 C   0  0  0  0  0  0  0  0  0
   -0.8019   -3.2263    0.0000 C   0  0  0  0  0  0  0  0  0
   -0.8019   -4.0513    0.0000 C   0  0  0  0  0  0  0  0  0
   -1.5163   -4.4638    0.0000 C   0  0  0  0  0  0  0  0  0
   -1.5163   -5.2888    0.0000 F   0  0  0  0  0  0  0  0  0
   -2.2308   -4.0513    0.0000 C   0  0  0  0  0  0  0  0  0
   -2.2308   -3.2263    0.0000 C   0  0  0  0  0  0  0  0  0
   -2.9453   -2.8138    0.0000 F   0  0  0  0  0  0  0  0  0
   -2.2308    2.5487    0.0000 C   0  0  0  0  0  0  0  0  0
   -2.9453    2.9612    0.0000 C   0  0  0  0  0  0  0  0  0
   -2.9453    3.7862    0.0000 C   0  0  0  0  0  0  0  0  0
   -2.2308    4.1987    0.0000 C   0  0  0  0  0  0  0  0  0
   -1.5163    3.7862    0.0000 C   0  0  0  0  0  0  0  0  0
   -1.5163    2.9612    0.0000 C   0  0  0  0  0  0  0  0  0
  1  2  2  0  0  0  0
  1  3  2  0  0  0  0
  1  4  1  0  0  0  0
  1 20  1  0  0  0  0
  4  5  4  0  0  0  0
  4  9  4  0  0  0  0
  5  6  4  0  0  0  0
  6  7  4  0  0  0  0
  7  8  4  0  0  0  0
  7 10  1  0  0  0  0
  8  9  4  0  0  0  0
 10 11  2  0  0  0  0
 11 12  1  0  0  0  0
 12 13  4  0  0  0  0
 12 18  4  0  0  0  0
 13 14  4  0  0  0  0
 14 15  4  0  0  0  0
 15 16  1  0  0  0  0
 15 17  4  0  0  0  0
 17 18  4  0  0  0  0
 18 19  1  0  0  0  0
 20 21  4  0  0  0  0
 20 25  4  0  0  0  0
 21 22  4  0  0  0  0
 22 23  4  0  0  0  0
 23 24  4  0  0  0  0
 24 25  4  0  0  0  0
M  END
>  <Name_Molregno>
632792

>  <5-HT2A>
8.88

>  <5-HT2C>
7.19

$$$$
632895
  Marvin  02231216192D 0   1.00000     0.00000     0

 25 27  0  0  0  0  0  0  0  0999 V2000
   -1.6637    2.3273    0.0000 S   0  0  0  0  0  0  0  0  0
   -0.8387    2.3273    0.0000 O   0  0  0  0  0  0  0  0  0
   -2.4887    2.3273    0.0000 O   0  0  0  0  0  0  0  0  0
   -1.6637    1.5023    0.0000 C   0  0  0  0  0  0  0  0  0
   -0.9492    1.0898    0.0000 C   0  0  0  0  0  0  0  0  0
   -0.9492    0.2648    0.0000 C   0  0  0  0  0  0  0  0  0
   -1.6637   -0.1477    0.0000 C   0  0  0  0  0  0  0  0  0
   -2.3781    0.2648    0.0000 C   0  0  0  0  0  0  0  0  0
   -2.3781    1.0898    0.0000 C   0  0  0  0  0  0  0  0  0
   -1.6637   -0.9727    0.0000 C   0  0  0  0  0  0  0  0  0
   -2.3781   -1.3852    0.0000 C   0  0  0  0  0  0  0  0  0
   -2.3781   -2.2102    0.0000 C   0  0  0  0  0  0  0  0  0
   -1.6637   -2.6227    0.0000 C   0  0  0  0  0  0  0  0  0
   -1.6637   -3.4477    0.0000 C   0  0  0  0  0  0  0  0  0
   -2.3781   -3.8602    0.0000 C   0  0  0  0  0  0  0  0  0
   -2.3781   -4.6852    0.0000 F   0  0  0  0  0  0  0  0  0
   -3.0926   -3.4477    0.0000 C   0  0  0  0  0  0  0  0  0
   -3.0926   -2.6227    0.0000 C   0  0  0  0  0  0  0  0  0
   -3.8071   -2.2102    0.0000 F   0  0  0  0  0  0  0  0  0
   -1.6637    3.1523    0.0000 C   0  0  0  0  0  0  0  0  0
   -2.3781    3.5648    0.0000 C   0  0  0  0  0  0  0  0  0
   -2.3781    4.3898    0.0000 C   0  0  0  0  0  0  0  0  0
   -1.6637    4.8023    0.0000 C   0  0  0  0  0  0  0  0  0
   -0.9492    4.3898    0.0000 C   0  0  0  0  0  0  0  0  0
   -0.9492    3.5648    0.0000 C   0  0  0  0  0  0  0  0  0
  1  2  2  0  0  0  0
  1  3  2  0  0  0  0
  1  4  1  0  0  0  0
  1 20  1  0  0  0  0
  4  5  4  0  0  0  0
  4  9  4  0  0  0  0
  5  6  4  0  0  0  0
  6  7  4  0  0  0  0
  7  8  4  0  0  0  0
  7 10  1  0  0  0  0
  8  9  4  0  0  0  0
 10 11  1  0  0  0  0
 11 12  1  0  0  0  0
 12 13  4  0  0  0  0
 12 18  4  0  0  0  0
 13 14  4  0  0  0  0
 14 15  4  0  0  0  0
 15 16  1  0  0  0  0
 15 17  4  0  0  0  0
 17 18  4  0  0  0  0
 18 19  1  0  0  0  0
 20 21  4  0  0  0  0
 20 25  4  0  0  0  0
 21 22  4  0  0  0  0
 22 23  4  0  0  0  0
 23 24  4  0  0  0  0
 24 25  4  0  0  0  0
M  END
>  <Name_Molregno>
632895

>  <5-HT2A>
8.84

>  <5-HT2C>
6.28

$$$$
632896
  Marvin  02231216192D 0   1.00000     0.00000     0

 28 30  0  0  0  0  0  0  0  0999 V2000
   -1.3808   -1.6294    0.0000 S   0  0  0  0  0  0  0  0  0
   -0.5558   -1.6294    0.0000 O   0  0  0  0  0  0  0  0  0
   -2.2058   -1.6294    0.0000 O   0  0  0  0  0  0  0  0  0
   -1.3808   -2.4544    0.0000 C   0  0  0  0  0  0  0  0  0
   -0.6663   -2.8669    0.0000 C   0  0  0  0  0  0  0  0  0
   -0.6663   -3.6919    0.0000 C   0  0  0  0  0  0  0  0  0
   -1.3808   -4.1044    0.0000 C   0  0  0  0  0  0  0  0  0
   -2.0952   -3.6919    0.0000 C   0  0  0  0  0  0  0  0  0
   -2.0952   -2.8669    0.0000 C   0  0  0  0  0  0  0  0  0
   -2.8097   -2.4544    0.0000 C   0  0  0  0  0  0  0  0  0
   -3.5242   -2.8669    0.0000 O   0  0  0  0  0  0  0  0  0
   -2.8097   -1.6294    0.0000 N   0  0  0  0  0  0  0  0  0
   -1.3808   -0.8044    0.0000 C   0  0  0  0  0  0  0  0  0
   -2.0952   -0.3919    0.0000 C   0  0  0  0  0  0  0  0  0
   -2.0952    0.4331    0.0000 C   0  0  0  0  0  0  0  0  0
   -1.3808    0.8456    0.0000 C   0  0  0  0  0  0  0  0  0
   -0.6663    0.4331    0.0000 C   0  0  0  0  0  0  0  0  0
   -0.6663   -0.3919    0.0000 C   0  0  0  0  0  0  0  0  0
   -1.3808    1.6706    0.0000 C   0  0  0  0  0  0  0  0  0
   -2.0952    2.0831    0.0000 C   0  0  0  0  0  0  0  0  0
   -2.0952    2.9081    0.0000 C   0  0  0  0  0  0  0  0  0
   -2.8097    3.3206    0.0000 C   0  0  0  0  0  0  0  0  0
   -2.8097    4.1456    0.0000 C   0  0  0  0  0  0  0  0  0
   -2.0952    4.5581    0.0000 C   0  0  0  0  0  0  0  0  0
   -2.0952    5.3831    0.0000 F   0  0  0  0  0  0  0  0  0
   -1.3808    4.1456    0.0000 C   0  0  0  0  0  0  0  0  0
   -1.3808    3.3206    0.0000 C   0  0  0  0  0  0  0  0  0
   -0.6663    2.9081    0.0000 F   0  0  0  0  0  0  0  0  0
  1  2  2  0  0  0  0
  1  3  2  0  0  0  0
  1  4  1  0  0  0  0
  1 13  1  0  0  0  0
  4  5  4  0  0  0  0
  4  9  4  0  0  0  0
  5  6  4  0  0  0  0
  6  7  4  0  0  0  0
  7  8  4  0  0  0  0
  8  9  4  0  0  0  0
  9 10  1  0  0  0  0
 10 11  2  0  0  0  0
 10 12  1  0  0  0  0
 13 14  4  0  0  0  0
 13 18  4  0  0  0  0
 14 15  4  0  0  0  0
 15 16  4  0  0  0  0
 16 17  4  0  0  0  0
 16 19  1  0  0  0  0
 17 18  4  0  0  0  0
 19 20  2  0  0  0  0
 20 21  1  0  0  0  0
 21 22  4  0  0  0  0
 21 27  4  0  0  0  0
 22 23  4  0  0  0  0
 23 24  4  0  0  0  0
 24 25  1  0  0  0  0
 24 26  4  0  0  0  0
 26 27  4  0  0  0  0
 27 28  1  0  0  0  0
M  END
>  <Name_Molregno>
632896

>  <5-HT2A>
9.19

>  <5-HT2C>
6.9

$$$$
632897
  Marvin  02231216192D 0   1.00000     0.00000     0

 28 30  0  0  0  0  0  0  0  0999 V2000
   -1.5325   -1.6296    0.0000 S   0  0  0  0  0  0  0  0  0
   -0.7075   -1.6296    0.0000 O   0  0  0  0  0  0  0  0  0
   -2.3575   -1.6296    0.0000 O   0  0  0  0  0  0  0  0  0
   -1.5325   -2.4546    0.0000 C   0  0  0  0  0  0  0  0  0
   -0.8180   -2.8671    0.0000 C   0  0  0  0  0  0  0  0  0
   -0.8180   -3.6921    0.0000 C   0  0  0  0  0  0  0  0  0
   -1.5325   -4.1046    0.0000 C   0  0  0  0  0  0  0  0  0
   -2.2469   -3.6921    0.0000 C   0  0  0  0  0  0  0  0  0
   -2.2469   -2.8671    0.0000 C   0  0  0  0  0  0  0  0  0
   -0.1035   -4.1046    0.0000 C   0  0  0  0  0  0  0  0  0
   -0.1035   -4.9296    0.0000 O   0  0  0  0  0  0  0  0  0
    0.6110   -3.6921    0.0000 N   0  0  0  0  0  0  0  0  0
   -1.5325   -0.8046    0.0000 C   0  0  0  0  0  0  0  0  0
   -2.2469   -0.3921    0.0000 C   0  0  0  0  0  0  0  0  0
   -2.2469    0.4329    0.0000 C   0  0  0  0  0  0  0  0  0
   -1.5325    0.8454    0.0000 C   0  0  0  0  0  0  0  0  0
   -0.8180    0.4329    0.0000 C   0  0  0  0  0  0  0  0  0
   -0.8180   -0.3921    0.0000 C   0  0  0  0  0  0  0  0  0
   -1.5325    1.6704    0.0000 C   0  0  0  0  0  0  0  0  0
   -2.2469    2.0829    0.0000 C   0  0  0  0  0  0  0  0  0
   -2.2469    2.9079    0.0000 C   0  0  0  0  0  0  0  0  0
   -2.9614    3.3204    0.0000 C   0  0  0  0  0  0  0  0  0
   -2.9614    4.1454    0.0000 C   0  0  0  0  0  0  0  0  0
   -2.2469    4.5579    0.0000 C   0  0  0  0  0  0  0  0  0
   -2.2469    5.3829    0.0000 F   0  0  0  0  0  0  0  0  0
   -1.5325    4.1454    0.0000 C   0  0  0  0  0  0  0  0  0
   -1.5325    3.3204    0.0000 C   0  0  0  0  0  0  0  0  0
   -0.8180    2.9079    0.0000 F   0  0  0  0  0  0  0  0  0
  1  2  2  0  0  0  0
  1  3  2  0  0  0  0
  1  4  1  0  0  0  0
  1 13  1  0  0  0  0
  4  5  4  0  0  0  0
  4  9  4  0  0  0  0
  5  6  4  0  0  0  0
  6  7  4  0  0  0  0
  6 10  1  0  0  0  0
  7  8  4  0  0  0  0
  8  9  4  0  0  0  0
 10 11  2  0  0  0  0
 10 12  1  0  0  0  0
 13 14  4  0  0  0  0
 13 18  4  0  0  0  0
 14 15  4  0  0  0  0
 15 16  4  0  0  0  0
 16 17  4  0  0  0  0
 16 19  1  0  0  0  0
 17 18  4  0  0  0  0
 19 20  2  0  0  0  0
 20 21  1  0  0  0  0
 21 22  4  0  0  0  0
 21 27  4  0  0  0  0
 22 23  4  0  0  0  0
 23 24  4  0  0  0  0
 24 25  1  0  0  0  0
 24 26  4  0  0  0  0
 26 27  4  0  0  0  0
 27 28  1  0  0  0  0
M  END
>  <Name_Molregno>
632897

>  <5-HT2A>
9.7

>  <5-HT2C>
7.68

$$$$
632898
  Marvin  02231216192D 0   1.00000     0.00000     0

 28 30  0  0  0  0  0  0  0  0999 V2000
   -1.2506   -1.7086    0.0000 S   0  0  0  0  0  0  0  0  0
   -0.4256   -1.7086    0.0000 O   0  0  0  0  0  0  0  0  0
   -2.0756   -1.7086    0.0000 O   0  0  0  0  0  0  0  0  0
   -1.2506   -2.5336    0.0000 C   0  0  0  0  0  0  0  0  0
   -0.5361   -2.9461    0.0000 C   0  0  0  0  0  0  0  0  0
   -0.5361   -3.7711    0.0000 C   0  0  0  0  0  0  0  0  0
   -1.2506   -4.1836    0.0000 C   0  0  0  0  0  0  0  0  0
   -1.9651   -3.7711    0.0000 C   0  0  0  0  0  0  0  0  0
   -1.9651   -2.9461    0.0000 C   0  0  0  0  0  0  0  0  0
   -1.2506   -5.0086    0.0000 C   0  0  0  0  0  0  0  0  0
   -1.9651   -5.4211    0.0000 O   0  0  0  0  0  0  0  0  0
   -0.5361   -5.4211    0.0000 N   0  0  0  0  0  0  0  0  0
   -1.2506   -0.8836    0.0000 C   0  0  0  0  0  0  0  0  0
   -1.9651   -0.4711    0.0000 C   0  0  0  0  0  0  0  0  0
   -1.9651    0.3539    0.0000 C   0  0  0  0  0  0  0  0  0
   -1.2506    0.7664    0.0000 C   0  0  0  0  0  0  0  0  0
   -0.5361    0.3539    0.0000 C   0  0  0  0  0  0  0  0  0
   -0.5361   -0.4711    0.0000 C   0  0  0  0  0  0  0  0  0
   -1.2506    1.5914    0.0000 C   0  0  0  0  0  0  0  0  0
   -1.9651    2.0039    0.0000 C   0  0  0  0  0  0  0  0  0
   -1.9651    2.8289    0.0000 C   0  0  0  0  0  0  0  0  0
   -2.6796    3.2414    0.0000 C   0  0  0  0  0  0  0  0  0
   -2.6796    4.0664    0.0000 C   0  0  0  0  0  0  0  0  0
   -1.9651    4.4789    0.0000 C   0  0  0  0  0  0  0  0  0
   -1.9651    5.3039    0.0000 F   0  0  0  0  0  0  0  0  0
   -1.2506    4.0664    0.0000 C   0  0  0  0  0  0  0  0  0
   -1.2506    3.2414    0.0000 C   0  0  0  0  0  0  0  0  0
   -0.5361    2.8289    0.0000 F   0  0  0  0  0  0  0  0  0
  1  2  2  0  0  0  0
  1  3  2  0  0  0  0
  1  4  1  0  0  0  0
  1 13  1  0  0  0  0
  4  5  4  0  0  0  0
  4  9  4  0  0  0  0
  5  6  4  0  0  0  0
  6  7  4  0  0  0  0
  7  8  4  0  0  0  0
  7 10  1  0  0  0  0
  8  9  4  0  0  0  0
 10 11  2  0  0  0  0
 10 12  1  0  0  0  0
 13 14  4  0  0  0  0
 13 18  4  0  0  0  0
 14 15  4  0  0  0  0
 15 16  4  0  0  0  0
 16 17  4  0  0  0  0
 16 19  1  0  0  0  0
 17 18  4  0  0  0  0
 19 20  2  0  0  0  0
 20 21  1  0  0  0  0
 21 22  4  0  0  0  0
 21 27  4  0  0  0  0
 22 23  4  0  0  0  0
 23 24  4  0  0  0  0
 24 25  1  0  0  0  0
 24 26  4  0  0  0  0
 26 27  4  0  0  0  0
 27 28  1  0  0  0  0
M  END
>  <Name_Molregno>
632898

>  <5-HT2A>
9.19

>  <5-HT2C>
7.39

$$$$
632899
  Marvin  02231216192D 0   1.00000     0.00000     0

 27 29  0  0  1  0  0  0  0  0999 V2000
    1.9893   -1.6485    0.0000 S   0  0  0  0  0  0  0  0  0
    2.8143   -1.6485    0.0000 O   0  0  0  0  0  0  0  0  0
    1.1643   -1.6485    0.0000 O   0  0  0  0  0  0  0  0  0
    1.9893   -2.4735    0.0000 C   0  0  0  0  0  0  0  0  0
    2.7038   -2.8860    0.0000 C   0  0  0  0  0  0  0  0  0
    2.7038   -3.7110    0.0000 C   0  0  0  0  0  0  0  0  0
    1.9893   -4.1235    0.0000 C   0  0  0  0  0  0  0  0  0
    1.2749   -3.7110    0.0000 C   0  0  0  0  0  0  0  0  0
    1.2749   -2.8860    0.0000 C   0  0  0  0  0  0  0  0  0
    0.5604   -2.4735    0.0000 C   0  0  0  0  0  0  0  0  0
   -0.1541   -2.8860    0.0000 O   0  0  0  0  0  0  0  0  0
    0.5604   -1.6485    0.0000 C   0  0  0  0  0  0  0  0  0
    1.9893   -0.8235    0.0000 C   0  0  0  0  0  0  0  0  0
    1.2749   -0.4110    0.0000 C   0  0  0  0  0  0  0  0  0
    1.2749    0.4140    0.0000 C   0  0  0  0  0  0  0  0  0
    1.9893    0.8265    0.0000 C   0  0  0  0  0  0  0  0  0
    2.7038    0.4140    0.0000 C   0  0  0  0  0  0  0  0  0
    2.7038   -0.4110    0.0000 C   0  0  0  0  0  0  0  0  0
    1.9893    1.6515    0.0000 C   0  0  0  0  0  0  0  0  0
    1.2749    2.0640    0.0000 C   0  0  0  0  0  0  0  0  0
    1.2749    2.8890    0.0000 C   0  0  0  0  0  0  0  0  0
    0.5604    3.3015    0.0000 C   0  0  0  0  0  0  0  0  0
    0.5604    4.1265    0.0000 C   0  0  0  0  0  0  0  0  0
    1.2749    4.5390    0.0000 C   0  0  0  0  0  0  0  0  0
    1.2749    5.3640    0.0000 F   0  0  0  0  0  0  0  0  0
    1.9893    4.1265    0.0000 C   0  0  0  0  0  0  0  0  0
    1.9893    3.3015    0.0000 C   0  0  0  0  0  0  0  0  0
  1  2  2  0  0  0  0
  1  3  2  0  0  0  0
  1  4  1  0  0  0  0
  1 13  1  0  0  0  0
  4  5  4  0  0  0  0
  4  9  4  0  0  0  0
  5  6  4  0  0  0  0
  6  7  4  0  0  0  0
  7  8  4  0  0  0  0
  8  9  4  0  0  0  0
  9 10  1  0  0  0  0
 10 11  1  0  0  0  0
 10 12  1  0  0  0  0
 13 14  4  0  0  0  0
 13 18  4  0  0  0  0
 14 15  4  0  0  0  0
 15 16  4  0  0  0  0
 16 17  4  0  0  0  0
 16 19  1  0  0  0  0
 17 18  4  0  0  0  0
 19 20  2  0  0  0  0
 20 21  1  0  0  0  0
 21 22  4  0  0  0  0
 21 27  4  0  0  0  0
 22 23  4  0  0  0  0
 23 24  4  0  0  0  0
 24 25  1  0  0  0  0
 24 26  4  0  0  0  0
 26 27  4  0  0  0  0
M  END
>  <Name_Molregno>
632899

>  <5-HT2A>
9.9

>  <5-HT2C>
7.74

$$$$
644493
  Marvin  02231216192D 0   1.00000     0.00000     0

 25 27  0  0  0  0  0  0  0  0999 V2000
   -1.8307   -2.3353    0.0000 S   0  0  0  0  0  0  0  0  0
   -1.0057   -2.3353    0.0000 O   0  0  0  0  0  0  0  0  0
   -2.6557   -2.3353    0.0000 O   0  0  0  0  0  0  0  0  0
   -1.8307   -3.1603    0.0000 C   0  0  0  0  0  0  0  0  0
   -1.1162   -3.5728    0.0000 C   0  0  0  0  0  0  0  0  0
   -1.1162   -4.3978    0.0000 C   0  0  0  0  0  0  0  0  0
   -1.8307   -4.8103    0.0000 C   0  0  0  0  0  0  0  0  0
   -2.5452   -4.3978    0.0000 C   0  0  0  0  0  0  0  0  0
   -2.5452   -3.5728    0.0000 C   0  0  0  0  0  0  0  0  0
   -1.8307   -1.5103    0.0000 C   0  0  0  0  0  0  0  0  0
   -2.5452   -1.0978    0.0000 C   0  0  0  0  0  0  0  0  0
   -2.5452   -0.2728    0.0000 C   0  0  0  0  0  0  0  0  0
   -1.8307    0.1397    0.0000 C   0  0  0  0  0  0  0  0  0
   -1.1162   -0.2728    0.0000 N   0  0  0  0  0  0  0  0  0
   -1.1162   -1.0978    0.0000 C   0  0  0  0  0  0  0  0  0
   -1.8307    0.9647    0.0000 C   0  0  0  0  0  0  0  0  0
   -2.5452    1.3772    0.0000 C   0  0  0  0  0  0  0  0  0
   -2.5452    2.2022    0.0000 C   0  0  0  0  0  0  0  0  0
   -3.2596    2.6147    0.0000 C   0  0  0  0  0  0  0  0  0
   -3.2596    3.4397    0.0000 C   0  0  0  0  0  0  0  0  0
   -2.5452    3.8522    0.0000 C   0  0  0  0  0  0  0  0  0
   -2.5452    4.6772    0.0000 F   0  0  0  0  0  0  0  0  0
   -1.8307    3.4397    0.0000 C   0  0  0  0  0  0  0  0  0
   -1.8307    2.6147    0.0000 C   0  0  0  0  0  0  0  0  0
   -1.1162    2.2022    0.0000 F   0  0  0  0  0  0  0  0  0
  1  2  2  0  0  0  0
  1  3  2  0  0  0  0
  1  4  1  0  0  0  0
  1 10  1  0  0  0  0
  4  5  4  0  0  0  0
  4  9  4  0  0  0  0
  5  6  4  0  0  0  0
  6  7  4  0  0  0  0
  7  8  4  0  0  0  0
  8  9  4  0  0  0  0
 10 11  4  0  0  0  0
 10 15  4  0  0  0  0
 11 12  4  0  0  0  0
 12 13  4  0  0  0  0
 13 14  4  0  0  0  0
 13 16  1  0  0  0  0
 14 15  4  0  0  0  0
 16 17  2  0  0  0  0
 17 18  1  0  0  0  0
 18 19  4  0  0  0  0
 18 24  4  0  0  0  0
 19 20  4  0  0  0  0
 20 21  4  0  0  0  0
 21 22  1  0  0  0  0
 21 23  4  0  0  0  0
 23 24  4  0  0  0  0
 24 25  1  0  0  0  0
M  END
>  <Name_Molregno>
644493

>  <5-HT2A>
9.07

>  <5-HT2C>
5.4

>  <DOPAMINE D2>
5.7

$$$$
650162
  Marvin  02231216192D 0   1.00000     0.00000     0

 21 23  0  0  0  0  0  0  0  0999 V2000
    7.0989   -1.9291    0.0000 F   0  0  0  0  0  0  0  0  0
    6.3844   -1.5166    0.0000 C   0  0  0  0  0  0  0  0  0
    5.6700   -1.9291    0.0000 C   0  0  0  0  0  0  0  0  0
    4.9555   -1.5166    0.0000 C   0  0  0  0  0  0  0  0  0
    4.1709   -1.7716    0.0000 N   0  0  0  0  0  0  0  0  0
    3.6859   -1.1041    0.0000 C   0  0  0  0  0  0  0  0  0
    4.1709   -0.4367    0.0000 C   0  0  0  0  0  0  0  0  0
    4.9555   -0.6916    0.0000 C   0  0  0  0  0  0  0  0  0
    5.6700   -0.2791    0.0000 C   0  0  0  0  0  0  0  0  0
    6.3844   -0.6916    0.0000 C   0  0  0  0  0  0  0  0  0
    3.9159    0.3479    0.0000 C   0  0  0  0  0  0  0  0  0
    3.1090    0.5194    0.0000 C   0  0  0  0  0  0  0  0  0
    2.4959   -0.0326    0.0000 N   0  0  0  0  0  0  0  0  0
    2.5821   -0.8531    0.0000 C   0  0  0  0  0  0  0  0  0
    1.7814    0.3799    0.0000 C   0  0  0  0  0  0  0  0  0
    1.0277    0.0444    0.0000 N   0  0  0  0  0  0  0  0  0
    1.9529    1.1869    0.0000 N   0  0  0  0  0  0  0  0  0
    1.4009    1.8000    0.0000 C   0  0  0  0  0  0  0  0  0
    0.5939    1.6284    0.0000 C   0  0  0  0  0  0  0  0  0
    2.7734    1.2731    0.0000 C   0  0  0  0  0  0  0  0  0
    3.1859    1.9876    0.0000 O   0  0  0  0  0  0  0  0  0
  1  2  1  0  0  0  0
  2  3  4  0  0  0  0
  2 10  4  0  0  0  0
  3  4  4  0  0  0  0
  4  5  4  0  0  0  0
  4  8  4  0  0  0  0
  5  6  4  0  0  0  0
  6  7  4  0  0  0  0
  7  8  4  0  0  0  0
  7 11  1  0  0  0  0
  8  9  4  0  0  0  0
  9 10  4  0  0  0  0
 11 12  2  0  0  0  0
 12 13  1  0  0  0  0
 12 20  1  0  0  0  0
 13 14  1  0  0  0  0
 13 15  1  0  0  0  0
 15 16  2  0  0  0  0
 15 17  1  0  0  0  0
 17 18  1  0  0  0  0
 17 20  1  0  0  0  0
 18 19  1  0  0  0  0
 20 21  2  0  0  0  0
M  STY  1   1 DAT
M  SAL   1  1   5
M  SDT   1 MRV_IMPLICIT_H                                        
M  SDD   1     0.0000    0.0000    DR    ALL  0       0  
M  SED   1 IMPL_H1
M  END
>  <Name_Molregno>
650162

>  <5-HT2A>
6.76

>  <5-HT2C>
5.28

$$$$
650755
  Marvin  02231216192D 0   1.00000     0.00000     0

 20 22  0  0  0  0  0  0  0  0999 V2000
    6.7675   -1.8400    0.0000 F   0  0  0  0  0  0  0  0  0
    6.0530   -1.4275    0.0000 C   0  0  0  0  0  0  0  0  0
    5.3386   -1.8400    0.0000 C   0  0  0  0  0  0  0  0  0
    4.6241   -1.4275    0.0000 C   0  0  0  0  0  0  0  0  0
    3.8395   -1.6825    0.0000 N   0  0  0  0  0  0  0  0  0
    3.3546   -1.0150    0.0000 C   0  0  0  0  0  0  0  0  0
    3.8395   -0.3476    0.0000 C   0  0  0  0  0  0  0  0  0
    4.6241   -0.6025    0.0000 C   0  0  0  0  0  0  0  0  0
    5.3386   -0.1900    0.0000 C   0  0  0  0  0  0  0  0  0
    6.0530   -0.6025    0.0000 C   0  0  0  0  0  0  0  0  0
    3.5845    0.4370    0.0000 C   0  0  0  0  0  0  0  0  0
    2.7776    0.6086    0.0000 C   0  0  0  0  0  0  0  0  0
    2.1645    0.0565    0.0000 N   0  0  0  0  0  0  0  0  0
    2.2507   -0.7640    0.0000 C   0  0  0  0  0  0  0  0  0
    1.4500    0.4690    0.0000 C   0  0  0  0  0  0  0  0  0
    0.6963    0.1335    0.0000 N   0  0  0  0  0  0  0  0  0
    1.6215    1.2760    0.0000 N   0  0  0  0  0  0  0  0  0
    1.0695    1.8891    0.0000 C   0  0  0  0  0  0  0  0  0
    2.4420    1.3622    0.0000 C   0  0  0  0  0  0  0  0  0
    2.8545    2.0767    0.0000 O   0  0  0  0  0  0  0  0  0
  1  2  1  0  0  0  0
  2  3  4  0  0  0  0
  2 10  4  0  0  0  0
  3  4  4  0  0  0  0
  4  5  4  0  0  0  0
  4  8  4  0  0  0  0
  5  6  4  0  0  0  0
  6  7  4  0  0  0  0
  7  8  4  0  0  0  0
  7 11  1  0  0  0  0
  8  9  4  0  0  0  0
  9 10  4  0  0  0  0
 11 12  2  0  0  0  0
 12 13  1  0  0  0  0
 12 19  1  0  0  0  0
 13 14  1  0  0  0  0
 13 15  1  0  0  0  0
 15 16  2  0  0  0  0
 15 17  1  0  0  0  0
 17 18  1  0  0  0  0
 17 19  1  0  0  0  0
 19 20  2  0  0  0  0
M  STY  1   1 DAT
M  SAL   1  1   5
M  SDT   1 MRV_IMPLICIT_H                                        
M  SDD   1     0.0000    0.0000    DR    ALL  0       0  
M  SED   1 IMPL_H1
M  END
>  <Name_Molregno>
650755

>  <5-HT2A>
6.63

>  <5-HT2C>
5.67

$$$$
650813
  Marvin  02231216192D 0   1.00000     0.00000     0

 20 22  0  0  0  0  0  0  0  0999 V2000
   -1.6865   -3.6264    0.0000 O   0  0  0  0  0  0  0  0  0
   -2.0990   -2.9119    0.0000 C   0  0  0  0  0  0  0  0  0
   -2.9195   -2.8257    0.0000 N   0  0  0  0  0  0  0  0  0
   -3.4715   -3.4388    0.0000 C   0  0  0  0  0  0  0  0  0
   -4.2785   -3.2673    0.0000 C   0  0  0  0  0  0  0  0  0
   -3.0910   -2.0187    0.0000 C   0  0  0  0  0  0  0  0  0
   -3.8447   -1.6832    0.0000 N   0  0  0  0  0  0  0  0  0
   -2.3766   -1.6062    0.0000 N   0  0  0  0  0  0  0  0  0
   -2.2903   -0.7858    0.0000 C   0  0  0  0  0  0  0  0  0
   -1.7635   -2.1583    0.0000 C   0  0  0  0  0  0  0  0  0
   -0.9565   -1.9867    0.0000 C   0  0  0  0  0  0  0  0  0
   -0.7016   -1.2021    0.0000 C   0  0  0  0  0  0  0  0  0
    0.0831   -0.9472    0.0000 C   0  0  0  0  0  0  0  0  0
    0.0831   -0.1222    0.0000 C   0  0  0  0  0  0  0  0  0
   -0.7016    0.1328    0.0000 N   0  0  0  0  0  0  0  0  0
   -1.1865   -0.5347    0.0000 C   0  0  0  0  0  0  0  0  0
    0.7975    0.2903    0.0000 C   0  0  0  0  0  0  0  0  0
    1.5120   -0.1222    0.0000 C   0  0  0  0  0  0  0  0  0
    1.5120   -0.9472    0.0000 C   0  0  0  0  0  0  0  0  0
    0.7975   -1.3597    0.0000 C   0  0  0  0  0  0  0  0  0
  1  2  2  0  0  0  0
  2  3  1  0  0  0  0
  2 10  1  0  0  0  0
  3  4  1  0  0  0  0
  3  6  1  0  0  0  0
  4  5  1  0  0  0  0
  6  7  2  0  0  0  0
  6  8  1  0  0  0  0
  8  9  1  0  0  0  0
  8 10  1  0  0  0  0
 10 11  2  0  0  0  0
 11 12  1  0  0  0  0
 12 13  4  0  0  0  0
 12 16  4  0  0  0  0
 13 14  4  0  0  0  0
 13 20  4  0  0  0  0
 14 15  4  0  0  0  0
 14 17  4  0  0  0  0
 15 16  4  0  0  0  0
 17 18  4  0  0  0  0
 18 19  4  0  0  0  0
 19 20  4  0  0  0  0
M  STY  1   1 DAT
M  SAL   1  1  15
M  SDT   1 MRV_IMPLICIT_H                                        
M  SDD   1     0.0000    0.0000    DR    ALL  0       0  
M  SED   1 IMPL_H1
M  END
>  <Name_Molregno>
650813

>  <5-HT2A>
6.18

>  <5-HT2C>
5.08

$$$$
686511
  Marvin  02231216192D 0   1.00000     0.00000     0

 24 26  0  0  0  0  0  0  0  0999 V2000
   -2.4579   -1.0138    0.0000 Br  0  0  0  0  0  0  0  0  0
   -2.4579   -1.8388    0.0000 C   0  0  0  0  0  0  0  0  0
   -1.7905   -2.3237    0.0000 C   0  0  0  0  0  0  0  0  0
   -2.0454   -3.1083    0.0000 N   0  0  0  0  0  0  0  0  0
   -2.8704   -3.1083    0.0000 N   0  0  0  0  0  0  0  0  0
   -3.1253   -2.3237    0.0000 C   0  0  0  0  0  0  0  0  0
   -3.9100   -2.0687    0.0000 C   0  0  0  0  0  0  0  0  0
   -4.5231   -2.6208    0.0000 O   0  0  0  0  0  0  0  0  0
   -4.0815   -1.2618    0.0000 N   0  0  0  0  0  0  0  0  0
   -4.8661   -1.0068    0.0000 C   0  0  0  0  0  0  0  0  0
   -5.0376   -0.1999    0.0000 C   0  0  0  0  0  0  0  0  0
   -4.4246    0.3522    0.0000 N   0  0  0  0  0  0  0  0  0
   -3.6399    0.0972    0.0000 C   0  0  0  0  0  0  0  0  0
   -3.4684   -0.7097    0.0000 C   0  0  0  0  0  0  0  0  0
   -4.5961    1.1592    0.0000 C   0  0  0  0  0  0  0  0  0
   -3.9830    1.7112    0.0000 C   0  0  0  0  0  0  0  0  0
   -4.1545    2.5182    0.0000 C   0  0  0  0  0  0  0  0  0
   -4.9391    2.7731    0.0000 C   0  0  0  0  0  0  0  0  0
   -5.1107    3.5801    0.0000 C   0  0  0  0  0  0  0  0  0
   -4.4976    4.1321    0.0000 C   0  0  0  0  0  0  0  0  0
   -3.7129    3.8772    0.0000 C   0  0  0  0  0  0  0  0  0
   -3.5414    3.0702    0.0000 C   0  0  0  0  0  0  0  0  0
   -2.7568    2.8152    0.0000 F   0  0  0  0  0  0  0  0  0
   -1.5605   -3.7757    0.0000 C   0  0  0  0  0  0  0  0  0
  1  2  1  0  0  0  0
  2  3  4  0  0  0  0
  2  6  4  0  0  0  0
  3  4  4  0  0  0  0
  4  5  4  0  0  0  0
  4 24  1  0  0  0  0
  5  6  4  0  0  0  0
  6  7  1  0  0  0  0
  7  8  2  0  0  0  0
  7  9  1  0  0  0  0
  9 10  1  0  0  0  0
  9 14  1  0  0  0  0
 10 11  1  0  0  0  0
 11 12  1  0  0  0  0
 12 13  1  0  0  0  0
 12 15  1  0  0  0  0
 13 14  1  0  0  0  0
 15 16  1  0  0  0  0
 16 17  1  0  0  0  0
 17 18  4  0  0  0  0
 17 22  4  0  0  0  0
 18 19  4  0  0  0  0
 19 20  4  0  0  0  0
 20 21  4  0  0  0  0
 21 22  4  0  0  0  0
 22 23  1  0  0  0  0
M  END
>  <Name_Molregno>
686511

>  <5-HT2A>
7.74

>  <5-HT2C>
5

$$$$
686512
  Marvin  02231216192D 0   1.00000     0.00000     0

 24 26  0  0  0  0  0  0  0  0999 V2000
   -2.3940   -1.0495    0.0000 Br  0  0  0  0  0  0  0  0  0
   -2.3940   -1.8745    0.0000 C   0  0  0  0  0  0  0  0  0
   -1.7266   -2.3594    0.0000 C   0  0  0  0  0  0  0  0  0
   -1.9815   -3.1440    0.0000 N   0  0  0  0  0  0  0  0  0
   -2.8065   -3.1440    0.0000 N   0  0  0  0  0  0  0  0  0
   -3.0614   -2.3594    0.0000 C   0  0  0  0  0  0  0  0  0
   -3.8461   -2.1045    0.0000 C   0  0  0  0  0  0  0  0  0
   -4.4591   -2.6565    0.0000 O   0  0  0  0  0  0  0  0  0
   -4.0176   -1.2975    0.0000 N   0  0  0  0  0  0  0  0  0
   -4.8022   -1.0426    0.0000 C   0  0  0  0  0  0  0  0  0
   -4.9737   -0.2356    0.0000 C   0  0  0  0  0  0  0  0  0
   -4.3606    0.3165    0.0000 N   0  0  0  0  0  0  0  0  0
   -3.5760    0.0615    0.0000 C   0  0  0  0  0  0  0  0  0
   -3.4045   -0.7455    0.0000 C   0  0  0  0  0  0  0  0  0
   -4.5322    1.1234    0.0000 C   0  0  0  0  0  0  0  0  0
   -3.9191    1.6755    0.0000 C   0  0  0  0  0  0  0  0  0
   -4.0906    2.4824    0.0000 C   0  0  0  0  0  0  0  0  0
   -4.8752    2.7374    0.0000 C   0  0  0  0  0  0  0  0  0
   -5.0467    3.5443    0.0000 C   0  0  0  0  0  0  0  0  0
   -5.8314    3.7993    0.0000 F   0  0  0  0  0  0  0  0  0
   -4.4336    4.0964    0.0000 C   0  0  0  0  0  0  0  0  0
   -3.6490    3.8414    0.0000 C   0  0  0  0  0  0  0  0  0
   -3.4775    3.0345    0.0000 C   0  0  0  0  0  0  0  0  0
   -1.4966   -3.8115    0.0000 C   0  0  0  0  0  0  0  0  0
  1  2  1  0  0  0  0
  2  3  4  0  0  0  0
  2  6  4  0  0  0  0
  3  4  4  0  0  0  0
  4  5  4  0  0  0  0
  4 24  1  0  0  0  0
  5  6  4  0  0  0  0
  6  7  1  0  0  0  0
  7  8  2  0  0  0  0
  7  9  1  0  0  0  0
  9 10  1  0  0  0  0
  9 14  1  0  0  0  0
 10 11  1  0  0  0  0
 11 12  1  0  0  0  0
 12 13  1  0  0  0  0
 12 15  1  0  0  0  0
 13 14  1  0  0  0  0
 15 16  1  0  0  0  0
 16 17  1  0  0  0  0
 17 18  4  0  0  0  0
 17 23  4  0  0  0  0
 18 19  4  0  0  0  0
 19 20  1  0  0  0  0
 19 21  4  0  0  0  0
 21 22  4  0  0  0  0
 22 23  4  0  0  0  0
M  END
>  <Name_Molregno>
686512

>  <5-HT2A>
6.27

>  <5-HT2C>
5

$$$$
686513
  Marvin  02231216192D 0   1.00000     0.00000     0

 24 26  0  0  0  0  0  0  0  0999 V2000
   -2.3854   -1.9581    0.0000 Br  0  0  0  0  0  0  0  0  0
   -2.3854   -2.7831    0.0000 C   0  0  0  0  0  0  0  0  0
   -1.7180   -3.2681    0.0000 C   0  0  0  0  0  0  0  0  0
   -1.9729   -4.0527    0.0000 N   0  0  0  0  0  0  0  0  0
   -2.7979   -4.0527    0.0000 N   0  0  0  0  0  0  0  0  0
   -3.0528   -3.2681    0.0000 C   0  0  0  0  0  0  0  0  0
   -3.8375   -3.0131    0.0000 C   0  0  0  0  0  0  0  0  0
   -4.4506   -3.5652    0.0000 O   0  0  0  0  0  0  0  0  0
   -4.0090   -2.2062    0.0000 N   0  0  0  0  0  0  0  0  0
   -4.7936   -1.9512    0.0000 C   0  0  0  0  0  0  0  0  0
   -4.9651   -1.1442    0.0000 C   0  0  0  0  0  0  0  0  0
   -4.3520   -0.5922    0.0000 N   0  0  0  0  0  0  0  0  0
   -3.5674   -0.8471    0.0000 C   0  0  0  0  0  0  0  0  0
   -3.3959   -1.6541    0.0000 C   0  0  0  0  0  0  0  0  0
   -4.5236    0.2148    0.0000 C   0  0  0  0  0  0  0  0  0
   -3.9105    0.7668    0.0000 C   0  0  0  0  0  0  0  0  0
   -4.0820    1.5738    0.0000 C   0  0  0  0  0  0  0  0  0
   -4.8666    1.8287    0.0000 C   0  0  0  0  0  0  0  0  0
   -5.0381    2.6357    0.0000 C   0  0  0  0  0  0  0  0  0
   -4.4251    3.1877    0.0000 C   0  0  0  0  0  0  0  0  0
   -4.5966    3.9947    0.0000 Cl  0  0  0  0  0  0  0  0  0
   -3.6404    2.9328    0.0000 C   0  0  0  0  0  0  0  0  0
   -3.4689    2.1258    0.0000 C   0  0  0  0  0  0  0  0  0
   -1.4880   -4.7201    0.0000 C   0  0  0  0  0  0  0  0  0
  1  2  1  0  0  0  0
  2  3  4  0  0  0  0
  2  6  4  0  0  0  0
  3  4  4  0  0  0  0
  4  5  4  0  0  0  0
  4 24  1  0  0  0  0
  5  6  4  0  0  0  0
  6  7  1  0  0  0  0
  7  8  2  0  0  0  0
  7  9  1  0  0  0  0
  9 10  1  0  0  0  0
  9 14  1  0  0  0  0
 10 11  1  0  0  0  0
 11 12  1  0  0  0  0
 12 13  1  0  0  0  0
 12 15  1  0  0  0  0
 13 14  1  0  0  0  0
 15 16  1  0  0  0  0
 16 17  1  0  0  0  0
 17 18  4  0  0  0  0
 17 23  4  0  0  0  0
 18 19  4  0  0  0  0
 19 20  4  0  0  0  0
 20 21  1  0  0  0  0
 20 22  4  0  0  0  0
 22 23  4  0  0  0  0
M  END
>  <Name_Molregno>
686513

>  <5-HT2A>
7.47

>  <5-HT2C>
5

$$$$
686514
  Marvin  02231216192D 0   1.00000     0.00000     0

 25 27  0  0  0  0  0  0  0  0999 V2000
   -2.6745   -1.3471    0.0000 Br  0  0  0  0  0  0  0  0  0
   -2.6745   -2.1721    0.0000 C   0  0  0  0  0  0  0  0  0
   -2.0071   -2.6571    0.0000 C   0  0  0  0  0  0  0  0  0
   -2.2620   -3.4417    0.0000 N   0  0  0  0  0  0  0  0  0
   -3.0870   -3.4417    0.0000 N   0  0  0  0  0  0  0  0  0
   -3.3420   -2.6571    0.0000 C   0  0  0  0  0  0  0  0  0
   -4.1266   -2.4021    0.0000 C   0  0  0  0  0  0  0  0  0
   -4.7397   -2.9541    0.0000 O   0  0  0  0  0  0  0  0  0
   -4.2981   -1.5951    0.0000 N   0  0  0  0  0  0  0  0  0
   -5.0827   -1.3402    0.0000 C   0  0  0  0  0  0  0  0  0
   -5.2543   -0.5332    0.0000 C   0  0  0  0  0  0  0  0  0
   -4.6412    0.0188    0.0000 N   0  0  0  0  0  0  0  0  0
   -3.8565   -0.2361    0.0000 C   0  0  0  0  0  0  0  0  0
   -3.6850   -1.0431    0.0000 C   0  0  0  0  0  0  0  0  0
   -4.8127    0.8258    0.0000 C   0  0  0  0  0  0  0  0  0
   -4.1996    1.3778    0.0000 C   0  0  0  0  0  0  0  0  0
   -4.3711    2.1848    0.0000 C   0  0  0  0  0  0  0  0  0
   -5.1557    2.4397    0.0000 C   0  0  0  0  0  0  0  0  0
   -5.3273    3.2467    0.0000 C   0  0  0  0  0  0  0  0  0
   -4.7142    3.7987    0.0000 C   0  0  0  0  0  0  0  0  0
   -4.8857    4.6057    0.0000 O   0  0  0  0  0  0  0  0  0
   -4.2726    5.1577    0.0000 C   0  0  0  0  0  0  0  0  0
   -3.9295    3.5438    0.0000 C   0  0  0  0  0  0  0  0  0
   -3.7580    2.7368    0.0000 C   0  0  0  0  0  0  0  0  0
   -1.7771   -4.1091    0.0000 C   0  0  0  0  0  0  0  0  0
  1  2  1  0  0  0  0
  2  3  4  0  0  0  0
  2  6  4  0  0  0  0
  3  4  4  0  0  0  0
  4  5  4  0  0  0  0
  4 25  1  0  0  0  0
  5  6  4  0  0  0  0
  6  7  1  0  0  0  0
  7  8  2  0  0  0  0
  7  9  1  0  0  0  0
  9 10  1  0  0  0  0
  9 14  1  0  0  0  0
 10 11  1  0  0  0  0
 11 12  1  0  0  0  0
 12 13  1  0  0  0  0
 12 15  1  0  0  0  0
 13 14  1  0  0  0  0
 15 16  1  0  0  0  0
 16 17  1  0  0  0  0
 17 18  4  0  0  0  0
 17 24  4  0  0  0  0
 18 19  4  0  0  0  0
 19 20  4  0  0  0  0
 20 21  1  0  0  0  0
 20 23  4  0  0  0  0
 21 22  1  0  0  0  0
 23 24  4  0  0  0  0
M  END
>  <Name_Molregno>
686514

>  <5-HT2A>
6.39

>  <5-HT2C>
5

$$$$
686515
  Marvin  02231216192D 0   1.00000     0.00000     0

 25 27  0  0  0  0  0  0  0  0999 V2000
   -2.4866   -2.2260    0.0000 Br  0  0  0  0  0  0  0  0  0
   -2.4866   -3.0510    0.0000 C   0  0  0  0  0  0  0  0  0
   -1.8191   -3.5359    0.0000 C   0  0  0  0  0  0  0  0  0
   -2.0741   -4.3205    0.0000 N   0  0  0  0  0  0  0  0  0
   -2.8991   -4.3205    0.0000 N   0  0  0  0  0  0  0  0  0
   -3.1540   -3.5359    0.0000 C   0  0  0  0  0  0  0  0  0
   -3.9386   -3.2809    0.0000 C   0  0  0  0  0  0  0  0  0
   -4.5517   -3.8330    0.0000 O   0  0  0  0  0  0  0  0  0
   -4.1102   -2.4740    0.0000 N   0  0  0  0  0  0  0  0  0
   -4.8948   -2.2190    0.0000 C   0  0  0  0  0  0  0  0  0
   -5.0663   -1.4121    0.0000 C   0  0  0  0  0  0  0  0  0
   -4.4532   -0.8600    0.0000 N   0  0  0  0  0  0  0  0  0
   -3.6686   -1.1150    0.0000 C   0  0  0  0  0  0  0  0  0
   -3.4971   -1.9219    0.0000 C   0  0  0  0  0  0  0  0  0
   -4.6247   -0.0531    0.0000 C   0  0  0  0  0  0  0  0  0
   -4.0116    0.4990    0.0000 C   0  0  0  0  0  0  0  0  0
   -4.1832    1.3059    0.0000 C   0  0  0  0  0  0  0  0  0
   -4.9678    1.5609    0.0000 C   0  0  0  0  0  0  0  0  0
   -5.1393    2.3679    0.0000 C   0  0  0  0  0  0  0  0  0
   -4.5262    2.9199    0.0000 C   0  0  0  0  0  0  0  0  0
   -4.6978    3.7269    0.0000 F   0  0  0  0  0  0  0  0  0
   -3.7416    2.6650    0.0000 C   0  0  0  0  0  0  0  0  0
   -3.5701    1.8580    0.0000 C   0  0  0  0  0  0  0  0  0
   -2.7855    1.6030    0.0000 F   0  0  0  0  0  0  0  0  0
   -1.5891   -4.9879    0.0000 C   0  0  0  0  0  0  0  0  0
  1  2  1  0  0  0  0
  2  3  4  0  0  0  0
  2  6  4  0  0  0  0
  3  4  4  0  0  0  0
  4  5  4  0  0  0  0
  4 25  1  0  0  0  0
  5  6  4  0  0  0  0
  6  7  1  0  0  0  0
  7  8  2  0  0  0  0
  7  9  1  0  0  0  0
  9 10  1  0  0  0  0
  9 14  1  0  0  0  0
 10 11  1  0  0  0  0
 11 12  1  0  0  0  0
 12 13  1  0  0  0  0
 12 15  1  0  0  0  0
 13 14  1  0  0  0  0
 15 16  1  0  0  0  0
 16 17  1  0  0  0  0
 17 18  4  0  0  0  0
 17 23  4  0  0  0  0
 18 19  4  0  0  0  0
 19 20  4  0  0  0  0
 20 21  1  0  0  0  0
 20 22  4  0  0  0  0
 22 23  4  0  0  0  0
 23 24  1  0  0  0  0
M  END
>  <Name_Molregno>
686515

>  <5-HT2A>
8.96

>  <5-HT2C>
5.55

$$$$
686585
  Marvin  02231216192D 0   1.00000     0.00000     0

 29 32  0  0  0  0  0  0  0  0999 V2000
   -5.7326   -1.6020    0.0000 Br  0  0  0  0  0  0  0  0  0
   -6.5172   -1.8569    0.0000 C   0  0  0  0  0  0  0  0  0
   -6.7721   -2.6415    0.0000 C   0  0  0  0  0  0  0  0  0
   -7.5971   -2.6415    0.0000 N   0  0  0  0  0  0  0  0  0
   -7.8521   -1.8569    0.0000 N   0  0  0  0  0  0  0  0  0
   -7.1846   -1.3720    0.0000 C   0  0  0  0  0  0  0  0  0
   -7.1846   -0.5470    0.0000 C   0  0  0  0  0  0  0  0  0
   -7.8991   -0.1345    0.0000 O   0  0  0  0  0  0  0  0  0
   -6.4702   -0.1345    0.0000 N   0  0  0  0  0  0  0  0  0
   -6.4702    0.6905    0.0000 C   0  0  0  0  0  0  0  0  0
   -5.7557    1.1030    0.0000 C   0  0  0  0  0  0  0  0  0
   -5.0412    0.6905    0.0000 N   0  0  0  0  0  0  0  0  0
   -5.0412   -0.1345    0.0000 C   0  0  0  0  0  0  0  0  0
   -5.7557   -0.5470    0.0000 C   0  0  0  0  0  0  0  0  0
   -4.3268    1.1030    0.0000 C   0  0  0  0  0  0  0  0  0
   -3.6123    0.6905    0.0000 C   0  0  0  0  0  0  0  0  0
   -2.8978    1.1030    0.0000 C   0  0  0  0  0  0  0  0  0
   -2.1833    0.6905    0.0000 C   0  0  0  0  0  0  0  0  0
   -2.1833   -0.1345    0.0000 O   0  0  0  0  0  0  0  0  0
   -1.4689    1.1030    0.0000 N   0  0  0  0  0  0  0  0  0
   -1.4689    1.9280    0.0000 C   0  0  0  0  0  0  0  0  0
   -2.1833    2.3405    0.0000 N   0  0  0  0  0  0  0  0  0
   -2.8978    1.9280    0.0000 C   0  0  0  0  0  0  0  0  0
   -3.6123    2.3405    0.0000 C   0  0  0  0  0  0  0  0  0
   -0.7544    2.3405    0.0000 C   0  0  0  0  0  0  0  0  0
   -0.0399    1.9280    0.0000 C   0  0  0  0  0  0  0  0  0
   -0.0399    1.1030    0.0000 C   0  0  0  0  0  0  0  0  0
   -0.7544    0.6905    0.0000 C   0  0  0  0  0  0  0  0  0
   -8.0821   -3.3090    0.0000 C   0  0  0  0  0  0  0  0  0
  1  2  1  0  0  0  0
  2  3  4  0  0  0  0
  2  6  4  0  0  0  0
  3  4  4  0  0  0  0
  4  5  4  0  0  0  0
  4 29  1  0  0  0  0
  5  6  4  0  0  0  0
  6  7  1  0  0  0  0
  7  8  2  0  0  0  0
  7  9  1  0  0  0  0
  9 10  1  0  0  0  0
  9 14  1  0  0  0  0
 10 11  1  0  0  0  0
 11 12  1  0  0  0  0
 12 13  1  0  0  0  0
 12 15  1  0  0  0  0
 13 14  1  0  0  0  0
 15 16  1  0  0  0  0
 16 17  1  0  0  0  0
 17 18  1  0  0  0  0
 17 23  2  0  0  0  0
 18 19  2  0  0  0  0
 18 20  1  0  0  0  0
 20 21  1  0  0  0  0
 20 28  1  0  0  0  0
 21 22  2  0  0  0  0
 21 25  1  0  0  0  0
 22 23  1  0  0  0  0
 23 24  1  0  0  0  0
 25 26  1  0  0  0  0
 26 27  1  0  0  0  0
 27 28  1  0  0  0  0
M  END
>  <Name_Molregno>
686585

>  <5-HT2A>
5

>  <5-HT2C>
5

$$$$
686586
  Marvin  02231216192D 0   1.00000     0.00000     0

 28 31  0  0  0  0  0  0  0  0999 V2000
    2.3117   -1.6977    0.0000 Br  0  0  0  0  0  0  0  0  0
    1.5048   -1.5261    0.0000 C   0  0  0  0  0  0  0  0  0
    0.8917   -2.0782    0.0000 C   0  0  0  0  0  0  0  0  0
    0.1772   -1.6657    0.0000 N   0  0  0  0  0  0  0  0  0
    0.3487   -0.8587    0.0000 N   0  0  0  0  0  0  0  0  0
    1.1692   -0.7725    0.0000 C   0  0  0  0  0  0  0  0  0
    1.5817   -0.0580    0.0000 C   0  0  0  0  0  0  0  0  0
    1.1692    0.6565    0.0000 O   0  0  0  0  0  0  0  0  0
    2.4067   -0.0580    0.0000 N   0  0  0  0  0  0  0  0  0
    2.8192    0.6565    0.0000 C   0  0  0  0  0  0  0  0  0
    3.6442    0.6565    0.0000 C   0  0  0  0  0  0  0  0  0
    4.0567   -0.0580    0.0000 N   0  0  0  0  0  0  0  0  0
    3.6442   -0.7725    0.0000 C   0  0  0  0  0  0  0  0  0
    2.8192   -0.7725    0.0000 C   0  0  0  0  0  0  0  0  0
    4.8817   -0.0580    0.0000 C   0  0  0  0  0  0  0  0  0
    5.2942   -0.7725    0.0000 C   0  0  0  0  0  0  0  0  0
    6.1192   -0.7725    0.0000 N   0  0  0  0  0  0  0  0  0
    6.6041   -1.4399    0.0000 C   0  0  0  0  0  0  0  0  0
    6.3492   -2.2245    0.0000 O   0  0  0  0  0  0  0  0  0
    7.3888   -1.1850    0.0000 C   0  0  0  0  0  0  0  0  0
    7.3888   -0.3600    0.0000 C   0  0  0  0  0  0  0  0  0
    8.1032    0.0525    0.0000 C   0  0  0  0  0  0  0  0  0
    8.8177   -0.3600    0.0000 C   0  0  0  0  0  0  0  0  0
    8.8177   -1.1850    0.0000 C   0  0  0  0  0  0  0  0  0
    8.1032   -1.5975    0.0000 C   0  0  0  0  0  0  0  0  0
    6.6041   -0.1050    0.0000 C   0  0  0  0  0  0  0  0  0
    6.3492    0.6796    0.0000 O   0  0  0  0  0  0  0  0  0
   -0.5765   -2.0012    0.0000 C   0  0  0  0  0  0  0  0  0
  1  2  1  0  0  0  0
  2  3  4  0  0  0  0
  2  6  4  0  0  0  0
  3  4  4  0  0  0  0
  4  5  4  0  0  0  0
  4 28  1  0  0  0  0
  5  6  4  0  0  0  0
  6  7  1  0  0  0  0
  7  8  2  0  0  0  0
  7  9  1  0  0  0  0
  9 10  1  0  0  0  0
  9 14  1  0  0  0  0
 10 11  1  0  0  0  0
 11 12  1  0  0  0  0
 12 13  1  0  0  0  0
 12 15  1  0  0  0  0
 13 14  1  0  0  0  0
 15 16  1  0  0  0  0
 16 17  1  0  0  0  0
 17 18  1  0  0  0  0
 17 26  1  0  0  0  0
 18 19  2  0  0  0  0
 18 20  1  0  0  0  0
 20 21  4  0  0  0  0
 20 25  4  0  0  0  0
 21 22  4  0  0  0  0
 21 26  1  0  0  0  0
 22 23  4  0  0  0  0
 23 24  4  0  0  0  0
 24 25  4  0  0  0  0
 26 27  2  0  0  0  0
M  END
>  <Name_Molregno>
686586

>  <5-HT2A>
5

>  <5-HT2C>
5

$$$$
686587
  Marvin  02231216192D 0   1.00000     0.00000     0

 25 27  0  0  0  0  0  0  0  0999 V2000
   -2.5369   -1.4790    0.0000 Br  0  0  0  0  0  0  0  0  0
   -2.5369   -2.3040    0.0000 C   0  0  0  0  0  0  0  0  0
   -1.8695   -2.7889    0.0000 C   0  0  0  0  0  0  0  0  0
   -2.1244   -3.5735    0.0000 N   0  0  0  0  0  0  0  0  0
   -2.9494   -3.5735    0.0000 N   0  0  0  0  0  0  0  0  0
   -3.2044   -2.7889    0.0000 C   0  0  0  0  0  0  0  0  0
   -3.9890   -2.5340    0.0000 C   0  0  0  0  0  0  0  0  0
   -4.6021   -3.0860    0.0000 O   0  0  0  0  0  0  0  0  0
   -4.1605   -1.7270    0.0000 N   0  0  0  0  0  0  0  0  0
   -4.9452   -1.4721    0.0000 C   0  0  0  0  0  0  0  0  0
   -5.1167   -0.6651    0.0000 C   0  0  0  0  0  0  0  0  0
   -4.5036   -0.1131    0.0000 N   0  0  0  0  0  0  0  0  0
   -3.7190   -0.3680    0.0000 C   0  0  0  0  0  0  0  0  0
   -3.5474   -1.1750    0.0000 C   0  0  0  0  0  0  0  0  0
   -4.6751    0.6939    0.0000 C   0  0  0  0  0  0  0  0  0
   -4.0620    1.2460    0.0000 C   0  0  0  0  0  0  0  0  0
   -3.2774    0.9910    0.0000 O   0  0  0  0  0  0  0  0  0
   -4.2335    2.0529    0.0000 C   0  0  0  0  0  0  0  0  0
   -5.0182    2.3079    0.0000 C   0  0  0  0  0  0  0  0  0
   -5.1897    3.1148    0.0000 C   0  0  0  0  0  0  0  0  0
   -4.5766    3.6669    0.0000 C   0  0  0  0  0  0  0  0  0
   -4.7481    4.4738    0.0000 F   0  0  0  0  0  0  0  0  0
   -3.7920    3.4119    0.0000 C   0  0  0  0  0  0  0  0  0
   -3.6204    2.6050    0.0000 C   0  0  0  0  0  0  0  0  0
   -1.6395   -4.2410    0.0000 C   0  0  0  0  0  0  0  0  0
  1  2  1  0  0  0  0
  2  3  4  0  0  0  0
  2  6  4  0  0  0  0
  3  4  4  0  0  0  0
  4  5  4  0  0  0  0
  4 25  1  0  0  0  0
  5  6  4  0  0  0  0
  6  7  1  0  0  0  0
  7  8  2  0  0  0  0
  7  9  1  0  0  0  0
  9 10  1  0  0  0  0
  9 14  1  0  0  0  0
 10 11  1  0  0  0  0
 11 12  1  0  0  0  0
 12 13  1  0  0  0  0
 12 15  1  0  0  0  0
 13 14  1  0  0  0  0
 15 16  1  0  0  0  0
 16 17  2  0  0  0  0
 16 18  1  0  0  0  0
 18 19  4  0  0  0  0
 18 24  4  0  0  0  0
 19 20  4  0  0  0  0
 20 21  4  0  0  0  0
 21 22  1  0  0  0  0
 21 23  4  0  0  0  0
 23 24  4  0  0  0  0
M  END
>  <Name_Molregno>
686587

>  <5-HT2A>
8.41

>  <5-HT2C>
5.67

$$$$
686588
  Marvin  02231216192D 0   1.00000     0.00000     0

 26 28  0  0  0  0  0  0  0  0999 V2000
   -2.5538   -2.2661    0.0000 Br  0  0  0  0  0  0  0  0  0
   -2.5538   -3.0911    0.0000 C   0  0  0  0  0  0  0  0  0
   -1.8864   -3.5760    0.0000 C   0  0  0  0  0  0  0  0  0
   -2.1413   -4.3607    0.0000 N   0  0  0  0  0  0  0  0  0
   -2.9663   -4.3607    0.0000 N   0  0  0  0  0  0  0  0  0
   -3.2213   -3.5760    0.0000 C   0  0  0  0  0  0  0  0  0
   -4.0059   -3.3211    0.0000 C   0  0  0  0  0  0  0  0  0
   -4.6190   -3.8731    0.0000 O   0  0  0  0  0  0  0  0  0
   -4.1774   -2.5141    0.0000 N   0  0  0  0  0  0  0  0  0
   -4.9620   -2.2592    0.0000 C   0  0  0  0  0  0  0  0  0
   -5.1336   -1.4522    0.0000 C   0  0  0  0  0  0  0  0  0
   -4.5205   -0.9002    0.0000 N   0  0  0  0  0  0  0  0  0
   -3.7358   -1.1551    0.0000 C   0  0  0  0  0  0  0  0  0
   -3.5643   -1.9621    0.0000 C   0  0  0  0  0  0  0  0  0
   -4.6920   -0.0932    0.0000 C   0  0  0  0  0  0  0  0  0
   -4.0789    0.4588    0.0000 C   0  0  0  0  0  0  0  0  0
   -3.2943    0.2039    0.0000 O   0  0  0  0  0  0  0  0  0
   -4.2504    1.2658    0.0000 C   0  0  0  0  0  0  0  0  0
   -5.0350    1.5207    0.0000 C   0  0  0  0  0  0  0  0  0
   -5.2066    2.3277    0.0000 C   0  0  0  0  0  0  0  0  0
   -4.5935    2.8797    0.0000 C   0  0  0  0  0  0  0  0  0
   -4.7650    3.6867    0.0000 F   0  0  0  0  0  0  0  0  0
   -3.8089    2.6248    0.0000 C   0  0  0  0  0  0  0  0  0
   -3.6373    1.8178    0.0000 C   0  0  0  0  0  0  0  0  0
   -2.8527    1.5629    0.0000 F   0  0  0  0  0  0  0  0  0
   -1.6564   -5.0281    0.0000 C   0  0  0  0  0  0  0  0  0
  1  2  1  0  0  0  0
  2  3  4  0  0  0  0
  2  6  4  0  0  0  0
  3  4  4  0  0  0  0
  4  5  4  0  0  0  0
  4 26  1  0  0  0  0
  5  6  4  0  0  0  0
  6  7  1  0  0  0  0
  7  8  2  0  0  0  0
  7  9  1  0  0  0  0
  9 10  1  0  0  0  0
  9 14  1  0  0  0  0
 10 11  1  0  0  0  0
 11 12  1  0  0  0  0
 12 13  1  0  0  0  0
 12 15  1  0  0  0  0
 13 14  1  0  0  0  0
 15 16  1  0  0  0  0
 16 17  2  0  0  0  0
 16 18  1  0  0  0  0
 18 19  4  0  0  0  0
 18 24  4  0  0  0  0
 19 20  4  0  0  0  0
 20 21  4  0  0  0  0
 21 22  1  0  0  0  0
 21 23  4  0  0  0  0
 23 24  4  0  0  0  0
 24 25  1  0  0  0  0
M  END
>  <Name_Molregno>
686588

>  <5-HT2A>
7.15

>  <5-HT2C>
5

$$$$
686589
  Marvin  02231216192D 0   1.00000     0.00000     0

 25 27  0  0  0  0  0  0  0  0999 V2000
   -2.5301   -1.0536    0.0000 Br  0  0  0  0  0  0  0  0  0
   -2.5301   -1.8786    0.0000 C   0  0  0  0  0  0  0  0  0
   -1.8627   -2.3635    0.0000 C   0  0  0  0  0  0  0  0  0
   -2.1176   -3.1481    0.0000 N   0  0  0  0  0  0  0  0  0
   -2.9426   -3.1481    0.0000 N   0  0  0  0  0  0  0  0  0
   -3.1976   -2.3635    0.0000 C   0  0  0  0  0  0  0  0  0
   -3.9822   -2.1085    0.0000 C   0  0  0  0  0  0  0  0  0
   -4.5953   -2.6606    0.0000 O   0  0  0  0  0  0  0  0  0
   -4.1537   -1.3016    0.0000 N   0  0  0  0  0  0  0  0  0
   -4.9384   -1.0466    0.0000 C   0  0  0  0  0  0  0  0  0
   -5.1099   -0.2397    0.0000 C   0  0  0  0  0  0  0  0  0
   -4.4968    0.3124    0.0000 N   0  0  0  0  0  0  0  0  0
   -3.7122    0.0574    0.0000 C   0  0  0  0  0  0  0  0  0
   -3.5406   -0.7495    0.0000 C   0  0  0  0  0  0  0  0  0
   -4.6683    1.1194    0.0000 C   0  0  0  0  0  0  0  0  0
   -4.0552    1.6714    0.0000 C   0  0  0  0  0  0  0  0  0
   -3.2706    1.4164    0.0000 O   0  0  0  0  0  0  0  0  0
   -4.2267    2.4784    0.0000 C   0  0  0  0  0  0  0  0  0
   -5.0114    2.7333    0.0000 C   0  0  0  0  0  0  0  0  0
   -5.1829    3.5403    0.0000 C   0  0  0  0  0  0  0  0  0
   -4.5698    4.0923    0.0000 C   0  0  0  0  0  0  0  0  0
   -3.7852    3.8374    0.0000 C   0  0  0  0  0  0  0  0  0
   -3.6136    3.0304    0.0000 C   0  0  0  0  0  0  0  0  0
   -2.8290    2.7754    0.0000 F   0  0  0  0  0  0  0  0  0
   -1.6327   -3.8155    0.0000 C   0  0  0  0  0  0  0  0  0
  1  2  1  0  0  0  0
  2  3  4  0  0  0  0
  2  6  4  0  0  0  0
  3  4  4  0  0  0  0
  4  5  4  0  0  0  0
  4 25  1  0  0  0  0
  5  6  4  0  0  0  0
  6  7  1  0  0  0  0
  7  8  2  0  0  0  0
  7  9  1  0  0  0  0
  9 10  1  0  0  0  0
  9 14  1  0  0  0  0
 10 11  1  0  0  0  0
 11 12  1  0  0  0  0
 12 13  1  0  0  0  0
 12 15  1  0  0  0  0
 13 14  1  0  0  0  0
 15 16  1  0  0  0  0
 16 17  2  0  0  0  0
 16 18  1  0  0  0  0
 18 19  4  0  0  0  0
 18 23  4  0  0  0  0
 19 20  4  0  0  0  0
 20 21  4  0  0  0  0
 21 22  4  0  0  0  0
 22 23  4  0  0  0  0
 23 24  1  0  0  0  0
M  END
>  <Name_Molregno>
686589

>  <5-HT2A>
6.57

>  <5-HT2C>
5.01

$$$$
686663
  Marvin  02231216192D 0   1.00000     0.00000     0

 28 30  0  0  0  0  0  0  0  0999 V2000
   -2.9801   -1.6020    0.0000 Br  0  0  0  0  0  0  0  0  0
   -2.9801   -2.4270    0.0000 C   0  0  0  0  0  0  0  0  0
   -2.3126   -2.9119    0.0000 C   0  0  0  0  0  0  0  0  0
   -2.5676   -3.6965    0.0000 N   0  0  0  0  0  0  0  0  0
   -3.3926   -3.6965    0.0000 N   0  0  0  0  0  0  0  0  0
   -3.6475   -2.9119    0.0000 C   0  0  0  0  0  0  0  0  0
   -4.4321   -2.6569    0.0000 C   0  0  0  0  0  0  0  0  0
   -5.0452   -3.2090    0.0000 O   0  0  0  0  0  0  0  0  0
   -4.6036   -1.8500    0.0000 N   0  0  0  0  0  0  0  0  0
   -5.3883   -1.5950    0.0000 C   0  0  0  0  0  0  0  0  0
   -5.5598   -0.7881    0.0000 C   0  0  0  0  0  0  0  0  0
   -4.9467   -0.2360    0.0000 N   0  0  0  0  0  0  0  0  0
   -4.1621   -0.4910    0.0000 C   0  0  0  0  0  0  0  0  0
   -3.9906   -1.2979    0.0000 C   0  0  0  0  0  0  0  0  0
   -5.1182    0.5709    0.0000 C   0  0  0  0  0  0  0  0  0
   -4.5051    1.1230    0.0000 C   0  0  0  0  0  0  0  0  0
   -3.7205    0.8680    0.0000 O   0  0  0  0  0  0  0  0  0
   -4.6767    1.9299    0.0000 C   0  0  0  0  0  0  0  0  0
   -5.4613    2.1849    0.0000 C   0  0  0  0  0  0  0  0  0
   -5.6328    2.9919    0.0000 C   0  0  0  0  0  0  0  0  0
   -5.0197    3.5439    0.0000 C   0  0  0  0  0  0  0  0  0
   -4.2351    3.2889    0.0000 C   0  0  0  0  0  0  0  0  0
   -4.0636    2.4820    0.0000 C   0  0  0  0  0  0  0  0  0
   -5.1912    4.3509    0.0000 C   0  0  0  0  0  0  0  0  0
   -5.3628    5.1578    0.0000 F   0  0  0  0  0  0  0  0  0
   -5.9982    4.1793    0.0000 F   0  0  0  0  0  0  0  0  0
   -4.3843    4.5224    0.0000 F   0  0  0  0  0  0  0  0  0
   -2.0826   -4.3639    0.0000 C   0  0  0  0  0  0  0  0  0
  1  2  1  0  0  0  0
  2  3  4  0  0  0  0
  2  6  4  0  0  0  0
  3  4  4  0  0  0  0
  4  5  4  0  0  0  0
  4 28  1  0  0  0  0
  5  6  4  0  0  0  0
  6  7  1  0  0  0  0
  7  8  2  0  0  0  0
  7  9  1  0  0  0  0
  9 10  1  0  0  0  0
  9 14  1  0  0  0  0
 10 11  1  0  0  0  0
 11 12  1  0  0  0  0
 12 13  1  0  0  0  0
 12 15  1  0  0  0  0
 13 14  1  0  0  0  0
 15 16  1  0  0  0  0
 16 17  2  0  0  0  0
 16 18  1  0  0  0  0
 18 19  4  0  0  0  0
 18 23  4  0  0  0  0
 19 20  4  0  0  0  0
 20 21  4  0  0  0  0
 21 22  4  0  0  0  0
 21 24  1  0  0  0  0
 22 23  4  0  0  0  0
 24 25  1  0  0  0  0
 24 26  1  0  0  0  0
 24 27  1  0  0  0  0
M  END
>  <Name_Molregno>
686663

>  <5-HT2A>
6.06

>  <5-HT2C>
5

$$$$
686664
  Marvin  02231216192D 0   1.00000     0.00000     0

 29 31  0  0  0  0  0  0  0  0999 V2000
   -3.2017   -2.6630    0.0000 Br  0  0  0  0  0  0  0  0  0
   -3.2017   -3.4880    0.0000 C   0  0  0  0  0  0  0  0  0
   -2.5342   -3.9729    0.0000 C   0  0  0  0  0  0  0  0  0
   -2.7892   -4.7575    0.0000 N   0  0  0  0  0  0  0  0  0
   -3.6142   -4.7575    0.0000 N   0  0  0  0  0  0  0  0  0
   -3.8691   -3.9729    0.0000 C   0  0  0  0  0  0  0  0  0
   -4.6537   -3.7180    0.0000 C   0  0  0  0  0  0  0  0  0
   -5.2668   -4.2700    0.0000 O   0  0  0  0  0  0  0  0  0
   -4.8253   -2.9110    0.0000 N   0  0  0  0  0  0  0  0  0
   -5.6099   -2.6561    0.0000 C   0  0  0  0  0  0  0  0  0
   -5.7814   -1.8491    0.0000 C   0  0  0  0  0  0  0  0  0
   -5.1683   -1.2971    0.0000 N   0  0  0  0  0  0  0  0  0
   -4.3837   -1.5520    0.0000 C   0  0  0  0  0  0  0  0  0
   -4.2122   -2.3590    0.0000 C   0  0  0  0  0  0  0  0  0
   -5.3399   -0.4901    0.0000 C   0  0  0  0  0  0  0  0  0
   -4.7268    0.0619    0.0000 C   0  0  0  0  0  0  0  0  0
   -3.9421   -0.1930    0.0000 O   0  0  0  0  0  0  0  0  0
   -4.8983    0.8689    0.0000 C   0  0  0  0  0  0  0  0  0
   -5.6829    1.1238    0.0000 C   0  0  0  0  0  0  0  0  0
   -5.8544    1.9308    0.0000 C   0  0  0  0  0  0  0  0  0
   -5.2413    2.4828    0.0000 C   0  0  0  0  0  0  0  0  0
   -5.4129    3.2898    0.0000 O   0  0  0  0  0  0  0  0  0
   -4.7998    3.8419    0.0000 C   0  0  0  0  0  0  0  0  0
   -4.1867    4.3939    0.0000 F   0  0  0  0  0  0  0  0  0
   -5.3518    4.4549    0.0000 F   0  0  0  0  0  0  0  0  0
   -4.2477    3.2288    0.0000 F   0  0  0  0  0  0  0  0  0
   -4.4567    2.2279    0.0000 C   0  0  0  0  0  0  0  0  0
   -4.2852    1.4209    0.0000 C   0  0  0  0  0  0  0  0  0
   -2.3043   -5.4250    0.0000 C   0  0  0  0  0  0  0  0  0
  1  2  1  0  0  0  0
  2  3  4  0  0  0  0
  2  6  4  0  0  0  0
  3  4  4  0  0  0  0
  4  5  4  0  0  0  0
  4 29  1  0  0  0  0
  5  6  4  0  0  0  0
  6  7  1  0  0  0  0
  7  8  2  0  0  0  0
  7  9  1  0  0  0  0
  9 10  1  0  0  0  0
  9 14  1  0  0  0  0
 10 11  1  0  0  0  0
 11 12  1  0  0  0  0
 12 13  1  0  0  0  0
 12 15  1  0  0  0  0
 13 14  1  0  0  0  0
 15 16  1  0  0  0  0
 16 17  2  0  0  0  0
 16 18  1  0  0  0  0
 18 19  4  0  0  0  0
 18 28  4  0  0  0  0
 19 20  4  0  0  0  0
 20 21  4  0  0  0  0
 21 22  1  0  0  0  0
 21 27  4  0  0  0  0
 22 23  1  0  0  0  0
 23 24  1  0  0  0  0
 23 25  1  0  0  0  0
 23 26  1  0  0  0  0
 27 28  4  0  0  0  0
M  END
>  <Name_Molregno>
686664

>  <5-HT2A>
5.22

>  <5-HT2C>
5.25

$$$$
686665
  Marvin  02231216192D 0   1.00000     0.00000     0

 25 27  0  0  1  0  0  0  0  0999 V2000
   -2.5369   -1.4790    0.0000 Br  0  0  0  0  0  0  0  0  0
   -2.5369   -2.3040    0.0000 C   0  0  0  0  0  0  0  0  0
   -1.8695   -2.7889    0.0000 C   0  0  0  0  0  0  0  0  0
   -2.1244   -3.5735    0.0000 N   0  0  0  0  0  0  0  0  0
   -2.9494   -3.5735    0.0000 N   0  0  0  0  0  0  0  0  0
   -3.2044   -2.7889    0.0000 C   0  0  0  0  0  0  0  0  0
   -3.9890   -2.5340    0.0000 C   0  0  0  0  0  0  0  0  0
   -4.6021   -3.0860    0.0000 O   0  0  0  0  0  0  0  0  0
   -4.1605   -1.7270    0.0000 N   0  0  0  0  0  0  0  0  0
   -4.9452   -1.4721    0.0000 C   0  0  0  0  0  0  0  0  0
   -5.1167   -0.6651    0.0000 C   0  0  0  0  0  0  0  0  0
   -4.5036   -0.1131    0.0000 N   0  0  0  0  0  0  0  0  0
   -3.7190   -0.3680    0.0000 C   0  0  0  0  0  0  0  0  0
   -3.5474   -1.1750    0.0000 C   0  0  0  0  0  0  0  0  0
   -4.6751    0.6939    0.0000 C   0  0  0  0  0  0  0  0  0
   -4.0620    1.2460    0.0000 C   0  0  0  0  0  0  0  0  0
   -3.2774    0.9910    0.0000 O   0  0  0  0  0  0  0  0  0
   -4.2335    2.0529    0.0000 C   0  0  0  0  0  0  0  0  0
   -5.0182    2.3079    0.0000 C   0  0  0  0  0  0  0  0  0
   -5.1897    3.1148    0.0000 C   0  0  0  0  0  0  0  0  0
   -4.5766    3.6669    0.0000 C   0  0  0  0  0  0  0  0  0
   -4.7481    4.4738    0.0000 F   0  0  0  0  0  0  0  0  0
   -3.7920    3.4119    0.0000 C   0  0  0  0  0  0  0  0  0
   -3.6204    2.6050    0.0000 C   0  0  0  0  0  0  0  0  0
   -1.6395   -4.2410    0.0000 C   0  0  0  0  0  0  0  0  0
  1  2  1  0  0  0  0
  2  3  4  0  0  0  0
  2  6  4  0  0  0  0
  3  4  4  0  0  0  0
  4  5  4  0  0  0  0
  4 25  1  0  0  0  0
  5  6  4  0  0  0  0
  6  7  1  0  0  0  0
  7  8  2  0  0  0  0
  7  9  1  0  0  0  0
  9 10  1  0  0  0  0
  9 14  1  0  0  0  0
 10 11  1  0  0  0  0
 11 12  1  0  0  0  0
 12 13  1  0  0  0  0
 12 15  1  0  0  0  0
 13 14  1  0  0  0  0
 15 16  1  0  0  0  0
 16 17  1  0  0  0  0
 16 18  1  0  0  0  0
 18 19  4  0  0  0  0
 18 24  4  0  0  0  0
 19 20  4  0  0  0  0
 20 21  4  0  0  0  0
 21 22  1  0  0  0  0
 21 23  4  0  0  0  0
 23 24  4  0  0  0  0
M  END
>  <Name_Molregno>
686665

>  <5-HT2A>
6.43

>  <5-HT2C>
5

$$$$
686666
  Marvin  02231216192D 0   1.00000     0.00000     0

 27 29  0  0  0  0  0  0  0  0999 V2000
   -3.1915   -0.6608    0.0000 Br  0  0  0  0  0  0  0  0  0
   -3.1915   -1.4858    0.0000 C   0  0  0  0  0  0  0  0  0
   -2.5241   -1.9707    0.0000 C   0  0  0  0  0  0  0  0  0
   -2.7790   -2.7553    0.0000 N   0  0  0  0  0  0  0  0  0
   -3.6040   -2.7553    0.0000 N   0  0  0  0  0  0  0  0  0
   -3.8590   -1.9707    0.0000 C   0  0  0  0  0  0  0  0  0
   -4.6436   -1.7158    0.0000 C   0  0  0  0  0  0  0  0  0
   -5.2567   -2.2678    0.0000 O   0  0  0  0  0  0  0  0  0
   -4.8151   -0.9088    0.0000 N   0  0  0  0  0  0  0  0  0
   -5.5997   -0.6538    0.0000 C   0  0  0  0  0  0  0  0  0
   -5.7713    0.1531    0.0000 C   0  0  0  0  0  0  0  0  0
   -5.1582    0.7052    0.0000 N   0  0  0  0  0  0  0  0  0
   -4.3735    0.4502    0.0000 C   0  0  0  0  0  0  0  0  0
   -4.2020   -0.3567    0.0000 C   0  0  0  0  0  0  0  0  0
   -5.3297    1.5121    0.0000 C   0  0  0  0  0  0  0  0  0
   -4.7166    2.0642    0.0000 C   0  0  0  0  0  0  0  0  0
   -4.8881    2.8711    0.0000 N   0  0  0  0  0  0  0  0  0
   -4.2750    3.4232    0.0000 O   0  0  0  0  0  0  0  0  0
   -4.4466    4.2301    0.0000 C   0  0  0  0  0  0  0  0  0
   -3.9320    1.8092    0.0000 C   0  0  0  0  0  0  0  0  0
   -3.3189    2.3613    0.0000 C   0  0  0  0  0  0  0  0  0
   -2.5343    2.1063    0.0000 C   0  0  0  0  0  0  0  0  0
   -2.3627    1.2993    0.0000 C   0  0  0  0  0  0  0  0  0
   -1.5781    1.0444    0.0000 F   0  0  0  0  0  0  0  0  0
   -2.9758    0.7473    0.0000 C   0  0  0  0  0  0  0  0  0
   -3.7604    1.0023    0.0000 C   0  0  0  0  0  0  0  0  0
   -2.2941   -3.4228    0.0000 C   0  0  0  0  0  0  0  0  0
  1  2  1  0  0  0  0
  2  3  4  0  0  0  0
  2  6  4  0  0  0  0
  3  4  4  0  0  0  0
  4  5  4  0  0  0  0
  4 27  1  0  0  0  0
  5  6  4  0  0  0  0
  6  7  1  0  0  0  0
  7  8  2  0  0  0  0
  7  9  1  0  0  0  0
  9 10  1  0  0  0  0
  9 14  1  0  0  0  0
 10 11  1  0  0  0  0
 11 12  1  0  0  0  0
 12 13  1  0  0  0  0
 12 15  1  0  0  0  0
 13 14  1  0  0  0  0
 15 16  1  0  0  0  0
 16 17  2  0  0  0  0
 16 20  1  0  0  0  0
 17 18  1  0  0  0  0
 18 19  1  0  0  0  0
 20 21  4  0  0  0  0
 20 26  4  0  0  0  0
 21 22  4  0  0  0  0
 22 23  4  0  0  0  0
 23 24  1  0  0  0  0
 23 25  4  0  0  0  0
 25 26  4  0  0  0  0
M  END
>  <Name_Molregno>
686666

>  <5-HT2A>
5.61

>  <5-HT2C>
5.07

$$$$
686667
  Marvin  02231216192D 0   1.00000     0.00000     0

 24 26  0  0  0  0  0  0  0  0999 V2000
    0.4755    3.0362    0.0000 F   0  0  0  0  0  0  0  0  0
    1.1900    2.6237    0.0000 C   0  0  0  0  0  0  0  0  0
    1.9044    3.0362    0.0000 C   0  0  0  0  0  0  0  0  0
    2.6189    2.6237    0.0000 C   0  0  0  0  0  0  0  0  0
    2.6189    1.7987    0.0000 C   0  0  0  0  0  0  0  0  0
    1.9044    1.3862    0.0000 C   0  0  0  0  0  0  0  0  0
    1.1900    1.7987    0.0000 C   0  0  0  0  0  0  0  0  0
    3.3334    1.3862    0.0000 C   0  0  0  0  0  0  0  0  0
    3.3334    0.5612    0.0000 O   0  0  0  0  0  0  0  0  0
    4.0479    1.7987    0.0000 C   0  0  0  0  0  0  0  0  0
    4.7623    1.3862    0.0000 N   0  0  0  0  0  0  0  0  0
    5.4768    1.7987    0.0000 C   0  0  0  0  0  0  0  0  0
    6.1913    1.3862    0.0000 C   0  0  0  0  0  0  0  0  0
    6.1913    0.5612    0.0000 N   0  0  0  0  0  0  0  0  0
    5.4768    0.1487    0.0000 C   0  0  0  0  0  0  0  0  0
    4.7623    0.5612    0.0000 C   0  0  0  0  0  0  0  0  0
    6.9057    0.1487    0.0000 C   0  0  0  0  0  0  0  0  0
    7.6202    0.5612    0.0000 O   0  0  0  0  0  0  0  0  0
    6.9057   -0.6763    0.0000 C   0  0  0  0  0  0  0  0  0
    7.5732   -1.1612    0.0000 N   0  0  0  0  0  0  0  0  0
    7.3182   -1.9459    0.0000 N   0  0  0  0  0  0  0  0  0
    6.4932   -1.9459    0.0000 C   0  0  0  0  0  0  0  0  0
    6.2383   -1.1612    0.0000 C   0  0  0  0  0  0  0  0  0
    7.8032   -2.6133    0.0000 C   0  0  0  0  0  0  0  0  0
  1  2  1  0  0  0  0
  2  3  4  0  0  0  0
  2  7  4  0  0  0  0
  3  4  4  0  0  0  0
  4  5  4  0  0  0  0
  5  6  4  0  0  0  0
  5  8  1  0  0  0  0
  6  7  4  0  0  0  0
  8  9  2  0  0  0  0
  8 10  1  0  0  0  0
 10 11  1  0  0  0  0
 11 12  1  0  0  0  0
 11 16  1  0  0  0  0
 12 13  1  0  0  0  0
 13 14  1  0  0  0  0
 14 15  1  0  0  0  0
 14 17  1  0  0  0  0
 15 16  1  0  0  0  0
 17 18  2  0  0  0  0
 17 19  1  0  0  0  0
 19 20  4  0  0  0  0
 19 23  4  0  0  0  0
 20 21  4  0  0  0  0
 21 22  4  0  0  0  0
 21 24  1  0  0  0  0
 22 23  4  0  0  0  0
M  END
>  <Name_Molregno>
686667

>  <5-HT2A>
7.43

>  <5-HT2C>
5.85

$$$$
686736
  Marvin  02231216192D 0   1.00000     0.00000     0

 26 28  0  0  0  0  0  0  0  0999 V2000
   -2.3452   -2.1180    0.0000 Br  0  0  0  0  0  0  0  0  0
   -2.3452   -2.9430    0.0000 C   0  0  0  0  0  0  0  0  0
   -1.6778   -3.4279    0.0000 C   0  0  0  0  0  0  0  0  0
   -1.9327   -4.2125    0.0000 N   0  0  0  0  0  0  0  0  0
   -2.7577   -4.2125    0.0000 N   0  0  0  0  0  0  0  0  0
   -3.0126   -3.4279    0.0000 C   0  0  0  0  0  0  0  0  0
   -3.7973   -3.1730    0.0000 C   0  0  0  0  0  0  0  0  0
   -4.4103   -3.7250    0.0000 O   0  0  0  0  0  0  0  0  0
   -3.9688   -2.3660    0.0000 N   0  0  0  0  0  0  0  0  0
   -4.7534   -2.1111    0.0000 C   0  0  0  0  0  0  0  0  0
   -4.9249   -1.3041    0.0000 C   0  0  0  0  0  0  0  0  0
   -4.3118   -0.7521    0.0000 N   0  0  0  0  0  0  0  0  0
   -3.5272   -1.0070    0.0000 C   0  0  0  0  0  0  0  0  0
   -3.3557   -1.8140    0.0000 C   0  0  0  0  0  0  0  0  0
   -4.4834    0.0549    0.0000 C   0  0  0  0  0  0  0  0  0
   -3.8703    0.6069    0.0000 C   0  0  0  0  0  0  0  0  0
   -3.0856    0.3520    0.0000 O   0  0  0  0  0  0  0  0  0
   -4.0418    1.4139    0.0000 C   0  0  0  0  0  0  0  0  0
   -4.8264    1.6689    0.0000 C   0  0  0  0  0  0  0  0  0
   -4.9979    2.4758    0.0000 C   0  0  0  0  0  0  0  0  0
   -4.3849    3.0279    0.0000 C   0  0  0  0  0  0  0  0  0
   -4.5564    3.8348    0.0000 F   0  0  0  0  0  0  0  0  0
   -3.6002    2.7729    0.0000 C   0  0  0  0  0  0  0  0  0
   -3.4287    1.9660    0.0000 C   0  0  0  0  0  0  0  0  0
   -1.4478   -4.8800    0.0000 C   0  0  0  0  0  0  0  0  0
   -0.8931   -3.1730    0.0000 C   0  0  0  0  0  0  0  0  0
  1  2  1  0  0  0  0
  2  3  4  0  0  0  0
  2  6  4  0  0  0  0
  3  4  4  0  0  0  0
  3 26  1  0  0  0  0
  4  5  4  0  0  0  0
  4 25  1  0  0  0  0
  5  6  4  0  0  0  0
  6  7  1  0  0  0  0
  7  8  2  0  0  0  0
  7  9  1  0  0  0  0
  9 10  1  0  0  0  0
  9 14  1  0  0  0  0
 10 11  1  0  0  0  0
 11 12  1  0  0  0  0
 12 13  1  0  0  0  0
 12 15  1  0  0  0  0
 13 14  1  0  0  0  0
 15 16  1  0  0  0  0
 16 17  2  0  0  0  0
 16 18  1  0  0  0  0
 18 19  4  0  0  0  0
 18 24  4  0  0  0  0
 19 20  4  0  0  0  0
 20 21  4  0  0  0  0
 21 22  1  0  0  0  0
 21 23  4  0  0  0  0
 23 24  4  0  0  0  0
M  END
>  <Name_Molregno>
686736

>  <5-HT2A>
8.34

>  <5-HT2C>
5.53

$$$$
686737
  Marvin  02231216192D 0   1.00000     0.00000     0

 25 27  0  0  0  0  0  0  0  0999 V2000
    0.7781    2.2069    0.0000 Br  0  0  0  0  0  0  0  0  0
    0.7781    1.3819    0.0000 C   0  0  0  0  0  0  0  0  0
    1.4456    0.8970    0.0000 C   0  0  0  0  0  0  0  0  0
    1.1906    0.1124    0.0000 N   0  0  0  0  0  0  0  0  0
    0.3656    0.1124    0.0000 N   0  0  0  0  0  0  0  0  0
    0.1107    0.8970    0.0000 C   0  0  0  0  0  0  0  0  0
   -0.6739    1.1519    0.0000 C   0  0  0  0  0  0  0  0  0
    2.2302    1.1519    0.0000 C   0  0  0  0  0  0  0  0  0
    2.4017    1.9589    0.0000 O   0  0  0  0  0  0  0  0  0
    2.8433    0.5999    0.0000 N   0  0  0  0  0  0  0  0  0
    3.6279    0.8548    0.0000 C   0  0  0  0  0  0  0  0  0
    4.2410    0.3028    0.0000 C   0  0  0  0  0  0  0  0  0
    4.0695   -0.5042    0.0000 N   0  0  0  0  0  0  0  0  0
    3.2849   -0.7591    0.0000 C   0  0  0  0  0  0  0  0  0
    2.6718   -0.2071    0.0000 C   0  0  0  0  0  0  0  0  0
    4.6826   -1.0562    0.0000 C   0  0  0  0  0  0  0  0  0
    5.4672   -0.8013    0.0000 C   0  0  0  0  0  0  0  0  0
    5.6387    0.0057    0.0000 O   0  0  0  0  0  0  0  0  0
    6.0803   -1.3533    0.0000 C   0  0  0  0  0  0  0  0  0
    6.8649   -1.0984    0.0000 C   0  0  0  0  0  0  0  0  0
    7.4780   -1.6504    0.0000 C   0  0  0  0  0  0  0  0  0
    7.3065   -2.4574    0.0000 C   0  0  0  0  0  0  0  0  0
    7.9196   -3.0094    0.0000 F   0  0  0  0  0  0  0  0  0
    6.5219   -2.7123    0.0000 C   0  0  0  0  0  0  0  0  0
    5.9088   -2.1603    0.0000 C   0  0  0  0  0  0  0  0  0
  1  2  1  0  0  0  0
  2  3  4  0  0  0  0
  2  6  4  0  0  0  0
  3  4  4  0  0  0  0
  3  8  1  0  0  0  0
  4  5  4  0  0  0  0
  5  6  4  0  0  0  0
  6  7  1  0  0  0  0
  8  9  2  0  0  0  0
  8 10  1  0  0  0  0
 10 11  1  0  0  0  0
 10 15  1  0  0  0  0
 11 12  1  0  0  0  0
 12 13  1  0  0  0  0
 13 14  1  0  0  0  0
 13 16  1  0  0  0  0
 14 15  1  0  0  0  0
 16 17  1  0  0  0  0
 17 18  2  0  0  0  0
 17 19  1  0  0  0  0
 19 20  4  0  0  0  0
 19 25  4  0  0  0  0
 20 21  4  0  0  0  0
 21 22  4  0  0  0  0
 22 23  1  0  0  0  0
 22 24  4  0  0  0  0
 24 25  4  0  0  0  0
M  STY  1   1 DAT
M  SAL   1  1   5
M  SDT   1 MRV_IMPLICIT_H                                        
M  SDD   1     0.0000    0.0000    DR    ALL  0       0  
M  SED   1 IMPL_H1
M  END
>  <Name_Molregno>
686737

>  <5-HT2A>
8.34

>  <5-HT2C>
5.45

$$$$
686738
  Marvin  02231216192D 0   1.00000     0.00000     0

 24 26  0  0  0  0  0  0  0  0999 V2000
    8.4690    2.3333    0.0000 F   0  0  0  0  0  0  0  0  0
    7.7545    1.9208    0.0000 C   0  0  0  0  0  0  0  0  0
    7.7545    1.0958    0.0000 C   0  0  0  0  0  0  0  0  0
    7.0401    0.6833    0.0000 C   0  0  0  0  0  0  0  0  0
    6.3256    1.0958    0.0000 C   0  0  0  0  0  0  0  0  0
    6.3256    1.9208    0.0000 C   0  0  0  0  0  0  0  0  0
    7.0401    2.3333    0.0000 C   0  0  0  0  0  0  0  0  0
    5.6111    0.6833    0.0000 C   0  0  0  0  0  0  0  0  0
    4.8967    1.0958    0.0000 O   0  0  0  0  0  0  0  0  0
    5.6111   -0.1417    0.0000 C   0  0  0  0  0  0  0  0  0
    4.8967   -0.5542    0.0000 N   0  0  0  0  0  0  0  0  0
    4.8967   -1.3792    0.0000 C   0  0  0  0  0  0  0  0  0
    4.1822   -1.7917    0.0000 C   0  0  0  0  0  0  0  0  0
    3.4677   -1.3792    0.0000 N   0  0  0  0  0  0  0  0  0
    3.4677   -0.5542    0.0000 C   0  0  0  0  0  0  0  0  0
    4.1822   -0.1417    0.0000 C   0  0  0  0  0  0  0  0  0
    2.7532   -1.7917    0.0000 C   0  0  0  0  0  0  0  0  0
    2.0388   -1.3792    0.0000 O   0  0  0  0  0  0  0  0  0
    2.7532   -2.6167    0.0000 C   0  0  0  0  0  0  0  0  0
    3.4207   -3.1016    0.0000 N   0  0  0  0  0  0  0  0  0
    3.1657   -3.8863    0.0000 N   0  0  0  0  0  0  0  0  0
    2.3407   -3.8863    0.0000 C   0  0  0  0  0  0  0  0  0
    2.0858   -3.1016    0.0000 C   0  0  0  0  0  0  0  0  0
    1.8558   -4.5537    0.0000 C   0  0  0  0  0  0  0  0  0
  1  2  1  0  0  0  0
  2  3  4  0  0  0  0
  2  7  4  0  0  0  0
  3  4  4  0  0  0  0
  4  5  4  0  0  0  0
  5  6  4  0  0  0  0
  5  8  1  0  0  0  0
  6  7  4  0  0  0  0
  8  9  2  0  0  0  0
  8 10  1  0  0  0  0
 10 11  1  0  0  0  0
 11 12  1  0  0  0  0
 11 16  1  0  0  0  0
 12 13  1  0  0  0  0
 13 14  1  0  0  0  0
 14 15  1  0  0  0  0
 14 17  1  0  0  0  0
 15 16  1  0  0  0  0
 17 18  2  0  0  0  0
 17 19  1  0  0  0  0
 19 20  4  0  0  0  0
 19 23  4  0  0  0  0
 20 21  4  0  0  0  0
 21 22  4  0  0  0  0
 22 23  4  0  0  0  0
 22 24  1  0  0  0  0
M  STY  1   1 DAT
M  SAL   1  1  21
M  SDT   1 MRV_IMPLICIT_H                                        
M  SDD   1     0.0000    0.0000    DR    ALL  0       0  
M  SED   1 IMPL_H1
M  END
>  <Name_Molregno>
686738

>  <5-HT2A>
7.44

>  <5-HT2C>
5

$$$$
686739
  Marvin  02231216192D 0   1.00000     0.00000     0

 25 27  0  0  0  0  0  0  0  0999 V2000
    0.5329    1.6386    0.0000 F   0  0  0  0  0  0  0  0  0
    1.2474    1.2261    0.0000 C   0  0  0  0  0  0  0  0  0
    1.9618    1.6386    0.0000 C   0  0  0  0  0  0  0  0  0
    2.6763    1.2261    0.0000 C   0  0  0  0  0  0  0  0  0
    2.6763    0.4011    0.0000 C   0  0  0  0  0  0  0  0  0
    1.9618   -0.0114    0.0000 C   0  0  0  0  0  0  0  0  0
    1.2474    0.4011    0.0000 C   0  0  0  0  0  0  0  0  0
    3.3908   -0.0114    0.0000 C   0  0  0  0  0  0  0  0  0
    3.3908   -0.8364    0.0000 O   0  0  0  0  0  0  0  0  0
    4.1052    0.4011    0.0000 C   0  0  0  0  0  0  0  0  0
    4.8197   -0.0114    0.0000 N   0  0  0  0  0  0  0  0  0
    5.5342    0.4011    0.0000 C   0  0  0  0  0  0  0  0  0
    6.2486   -0.0114    0.0000 C   0  0  0  0  0  0  0  0  0
    6.2486   -0.8364    0.0000 N   0  0  0  0  0  0  0  0  0
    5.5342   -1.2489    0.0000 C   0  0  0  0  0  0  0  0  0
    4.8197   -0.8364    0.0000 C   0  0  0  0  0  0  0  0  0
    6.9631   -1.2489    0.0000 C   0  0  0  0  0  0  0  0  0
    7.6776   -0.8364    0.0000 O   0  0  0  0  0  0  0  0  0
    6.9631   -2.0739    0.0000 C   0  0  0  0  0  0  0  0  0
    7.6306   -2.5588    0.0000 N   0  0  0  0  0  0  0  0  0
    7.3756   -3.3434    0.0000 N   0  0  0  0  0  0  0  0  0
    7.8605   -4.0109    0.0000 C   0  0  0  0  0  0  0  0  0
    6.5506   -3.3434    0.0000 C   0  0  0  0  0  0  0  0  0
    6.2957   -2.5588    0.0000 C   0  0  0  0  0  0  0  0  0
    6.0657   -4.0109    0.0000 C   0  0  0  0  0  0  0  0  0
  1  2  1  0  0  0  0
  2  3  4  0  0  0  0
  2  7  4  0  0  0  0
  3  4  4  0  0  0  0
  4  5  4  0  0  0  0
  5  6  4  0  0  0  0
  5  8  1  0  0  0  0
  6  7  4  0  0  0  0
  8  9  2  0  0  0  0
  8 10  1  0  0  0  0
 10 11  1  0  0  0  0
 11 12  1  0  0  0  0
 11 16  1  0  0  0  0
 12 13  1  0  0  0  0
 13 14  1  0  0  0  0
 14 15  1  0  0  0  0
 14 17  1  0  0  0  0
 15 16  1  0  0  0  0
 17 18  2  0  0  0  0
 17 19  1  0  0  0  0
 19 20  4  0  0  0  0
 19 24  4  0  0  0  0
 20 21  4  0  0  0  0
 21 22  1  0  0  0  0
 21 23  4  0  0  0  0
 23 24  4  0  0  0  0
 23 25  1  0  0  0  0
M  END
>  <Name_Molregno>
686739

>  <5-HT2A>
8.07

>  <5-HT2C>
5

$$$$
686740
  Marvin  02231216192D 0   1.00000     0.00000     0

 28 30  0  0  0  0  0  0  0  0999 V2000
    0.6619    1.8291    0.0000 F   0  0  0  0  0  0  0  0  0
    1.3764    1.4166    0.0000 C   0  0  0  0  0  0  0  0  0
    2.0909    1.8291    0.0000 C   0  0  0  0  0  0  0  0  0
    2.8054    1.4166    0.0000 C   0  0  0  0  0  0  0  0  0
    2.8054    0.5916    0.0000 C   0  0  0  0  0  0  0  0  0
    2.0909    0.1791    0.0000 C   0  0  0  0  0  0  0  0  0
    1.3764    0.5916    0.0000 C   0  0  0  0  0  0  0  0  0
    3.5198    0.1791    0.0000 C   0  0  0  0  0  0  0  0  0
    3.5198   -0.6459    0.0000 O   0  0  0  0  0  0  0  0  0
    4.2343    0.5916    0.0000 C   0  0  0  0  0  0  0  0  0
    4.9488    0.1791    0.0000 N   0  0  0  0  0  0  0  0  0
    5.6632    0.5916    0.0000 C   0  0  0  0  0  0  0  0  0
    6.3777    0.1791    0.0000 C   0  0  0  0  0  0  0  0  0
    6.3777   -0.6459    0.0000 N   0  0  0  0  0  0  0  0  0
    5.6632   -1.0584    0.0000 C   0  0  0  0  0  0  0  0  0
    4.9488   -0.6459    0.0000 C   0  0  0  0  0  0  0  0  0
    7.0922   -1.0584    0.0000 C   0  0  0  0  0  0  0  0  0
    7.8067   -0.6459    0.0000 O   0  0  0  0  0  0  0  0  0
    7.0922   -1.8834    0.0000 C   0  0  0  0  0  0  0  0  0
    7.7596   -2.3684    0.0000 N   0  0  0  0  0  0  0  0  0
    7.5047   -3.1530    0.0000 N   0  0  0  0  0  0  0  0  0
    7.9896   -3.8204    0.0000 C   0  0  0  0  0  0  0  0  0
    8.4745   -4.4879    0.0000 C   0  0  0  0  0  0  0  0  0
    7.3222   -4.3053    0.0000 C   0  0  0  0  0  0  0  0  0
    8.6570   -3.3355    0.0000 C   0  0  0  0  0  0  0  0  0
    6.6797   -3.1530    0.0000 C   0  0  0  0  0  0  0  0  0
    6.4247   -2.3684    0.0000 C   0  0  0  0  0  0  0  0  0
    6.1948   -3.8204    0.0000 C   0  0  0  0  0  0  0  0  0
  1  2  1  0  0  0  0
  2  3  4  0  0  0  0
  2  7  4  0  0  0  0
  3  4  4  0  0  0  0
  4  5  4  0  0  0  0
  5  6  4  0  0  0  0
  5  8  1  0  0  0  0
  6  7  4  0  0  0  0
  8  9  2  0  0  0  0
  8 10  1  0  0  0  0
 10 11  1  0  0  0  0
 11 12  1  0  0  0  0
 11 16  1  0  0  0  0
 12 13  1  0  0  0  0
 13 14  1  0  0  0  0
 14 15  1  0  0  0  0
 14 17  1  0  0  0  0
 15 16  1  0  0  0  0
 17 18  2  0  0  0  0
 17 19  1  0  0  0  0
 19 20  4  0  0  0  0
 19 27  4  0  0  0  0
 20 21  4  0  0  0  0
 21 22  1  0  0  0  0
 21 26  4  0  0  0  0
 22 23  1  0  0  0  0
 22 24  1  0  0  0  0
 22 25  1  0  0  0  0
 26 27  4  0  0  0  0
 26 28  1  0  0  0  0
M  END
>  <Name_Molregno>
686740

>  <5-HT2A>
8.03

>  <5-HT2C>
5

$$$$
686805
  Marvin  02231216192D 0   1.00000     0.00000     0

 25 27  0  0  0  0  0  0  0  0999 V2000
   -2.5369   -1.4790    0.0000 Cl  0  0  0  0  0  0  0  0  0
   -2.5369   -2.3040    0.0000 C   0  0  0  0  0  0  0  0  0
   -1.8695   -2.7889    0.0000 C   0  0  0  0  0  0  0  0  0
   -2.1244   -3.5735    0.0000 N   0  0  0  0  0  0  0  0  0
   -2.9494   -3.5735    0.0000 N   0  0  0  0  0  0  0  0  0
   -3.2044   -2.7889    0.0000 C   0  0  0  0  0  0  0  0  0
   -3.9890   -2.5340    0.0000 C   0  0  0  0  0  0  0  0  0
   -4.6021   -3.0860    0.0000 O   0  0  0  0  0  0  0  0  0
   -4.1605   -1.7270    0.0000 N   0  0  0  0  0  0  0  0  0
   -4.9452   -1.4721    0.0000 C   0  0  0  0  0  0  0  0  0
   -5.1167   -0.6651    0.0000 C   0  0  0  0  0  0  0  0  0
   -4.5036   -0.1131    0.0000 N   0  0  0  0  0  0  0  0  0
   -3.7190   -0.3680    0.0000 C   0  0  0  0  0  0  0  0  0
   -3.5474   -1.1750    0.0000 C   0  0  0  0  0  0  0  0  0
   -4.6751    0.6939    0.0000 C   0  0  0  0  0  0  0  0  0
   -4.0620    1.2460    0.0000 C   0  0  0  0  0  0  0  0  0
   -3.2774    0.9910    0.0000 O   0  0  0  0  0  0  0  0  0
   -4.2335    2.0529    0.0000 C   0  0  0  0  0  0  0  0  0
   -5.0182    2.3079    0.0000 C   0  0  0  0  0  0  0  0  0
   -5.1897    3.1148    0.0000 C   0  0  0  0  0  0  0  0  0
   -4.5766    3.6669    0.0000 C   0  0  0  0  0  0  0  0  0
   -4.7481    4.4738    0.0000 F   0  0  0  0  0  0  0  0  0
   -3.7920    3.4119    0.0000 C   0  0  0  0  0  0  0  0  0
   -3.6204    2.6050    0.0000 C   0  0  0  0  0  0  0  0  0
   -1.6395   -4.2410    0.0000 C   0  0  0  0  0  0  0  0  0
  1  2  1  0  0  0  0
  2  3  4  0  0  0  0
  2  6  4  0  0  0  0
  3  4  4  0  0  0  0
  4  5  4  0  0  0  0
  4 25  1  0  0  0  0
  5  6  4  0  0  0  0
  6  7  1  0  0  0  0
  7  8  2  0  0  0  0
  7  9  1  0  0  0  0
  9 10  1  0  0  0  0
  9 14  1  0  0  0  0
 10 11  1  0  0  0  0
 11 12  1  0  0  0  0
 12 13  1  0  0  0  0
 12 15  1  0  0  0  0
 13 14  1  0  0  0  0
 15 16  1  0  0  0  0
 16 17  2  0  0  0  0
 16 18  1  0  0  0  0
 18 19  4  0  0  0  0
 18 24  4  0  0  0  0
 19 20  4  0  0  0  0
 20 21  4  0  0  0  0
 21 22  1  0  0  0  0
 21 23  4  0  0  0  0
 23 24  4  0  0  0  0
M  END
>  <Name_Molregno>
686805

>  <5-HT2A>
8.43

>  <5-HT2C>
5.85

$$$$
686806
  Marvin  02231216192D 0   1.00000     0.00000     0

 26 28  0  0  0  0  0  0  0  0999 V2000
   -2.5317   -1.1642    0.0000 Cl  0  0  0  0  0  0  0  0  0
   -2.5317   -1.9892    0.0000 C   0  0  0  0  0  0  0  0  0
   -1.8642   -2.4741    0.0000 C   0  0  0  0  0  0  0  0  0
   -2.1192   -3.2588    0.0000 N   0  0  0  0  0  0  0  0  0
   -2.9442   -3.2588    0.0000 N   0  0  0  0  0  0  0  0  0
   -3.1991   -2.4741    0.0000 C   0  0  0  0  0  0  0  0  0
   -3.9837   -2.2192    0.0000 C   0  0  0  0  0  0  0  0  0
   -4.5968   -2.7712    0.0000 O   0  0  0  0  0  0  0  0  0
   -4.1553   -1.4122    0.0000 N   0  0  0  0  0  0  0  0  0
   -4.9399   -1.1573    0.0000 C   0  0  0  0  0  0  0  0  0
   -5.1114   -0.3503    0.0000 C   0  0  0  0  0  0  0  0  0
   -4.4983    0.2017    0.0000 N   0  0  0  0  0  0  0  0  0
   -3.7137   -0.0532    0.0000 C   0  0  0  0  0  0  0  0  0
   -3.5422   -0.8602    0.0000 C   0  0  0  0  0  0  0  0  0
   -4.6698    1.0087    0.0000 C   0  0  0  0  0  0  0  0  0
   -4.0567    1.5607    0.0000 C   0  0  0  0  0  0  0  0  0
   -3.2721    1.3058    0.0000 O   0  0  0  0  0  0  0  0  0
   -4.2283    2.3677    0.0000 C   0  0  0  0  0  0  0  0  0
   -5.0129    2.6226    0.0000 C   0  0  0  0  0  0  0  0  0
   -5.1844    3.4296    0.0000 C   0  0  0  0  0  0  0  0  0
   -4.5713    3.9816    0.0000 C   0  0  0  0  0  0  0  0  0
   -4.7429    4.7886    0.0000 F   0  0  0  0  0  0  0  0  0
   -3.7867    3.7267    0.0000 C   0  0  0  0  0  0  0  0  0
   -3.6152    2.9197    0.0000 C   0  0  0  0  0  0  0  0  0
   -1.6342   -3.9262    0.0000 C   0  0  0  0  0  0  0  0  0
   -0.8138   -3.8400    0.0000 C   0  0  0  0  0  0  0  0  0
  1  2  1  0  0  0  0
  2  3  4  0  0  0  0
  2  6  4  0  0  0  0
  3  4  4  0  0  0  0
  4  5  4  0  0  0  0
  4 25  1  0  0  0  0
  5  6  4  0  0  0  0
  6  7  1  0  0  0  0
  7  8  2  0  0  0  0
  7  9  1  0  0  0  0
  9 10  1  0  0  0  0
  9 14  1  0  0  0  0
 10 11  1  0  0  0  0
 11 12  1  0  0  0  0
 12 13  1  0  0  0  0
 12 15  1  0  0  0  0
 13 14  1  0  0  0  0
 15 16  1  0  0  0  0
 16 17  2  0  0  0  0
 16 18  1  0  0  0  0
 18 19  4  0  0  0  0
 18 24  4  0  0  0  0
 19 20  4  0  0  0  0
 20 21  4  0  0  0  0
 21 22  1  0  0  0  0
 21 23  4  0  0  0  0
 23 24  4  0  0  0  0
 25 26  1  0  0  0  0
M  END
>  <Name_Molregno>
686806

>  <5-HT2A>
8.59

>  <5-HT2C>
5

$$$$
686807
  Marvin  02231216192D 0   1.00000     0.00000     0

 24 26  0  0  0  0  0  0  0  0999 V2000
   -1.9900   -1.1235    0.0000 Cl  0  0  0  0  0  0  0  0  0
   -1.9900   -1.9485    0.0000 C   0  0  0  0  0  0  0  0  0
   -1.3226   -2.4334    0.0000 C   0  0  0  0  0  0  0  0  0
   -1.5775   -3.2181    0.0000 N   0  0  0  0  0  0  0  0  0
   -2.4025   -3.2181    0.0000 N   0  0  0  0  0  0  0  0  0
   -2.6575   -2.4334    0.0000 C   0  0  0  0  0  0  0  0  0
   -3.4421   -2.1785    0.0000 C   0  0  0  0  0  0  0  0  0
   -4.0552   -2.7305    0.0000 O   0  0  0  0  0  0  0  0  0
   -3.6136   -1.3715    0.0000 N   0  0  0  0  0  0  0  0  0
   -4.3982   -1.1166    0.0000 C   0  0  0  0  0  0  0  0  0
   -4.5698   -0.3096    0.0000 C   0  0  0  0  0  0  0  0  0
   -3.9567    0.2424    0.0000 N   0  0  0  0  0  0  0  0  0
   -3.1721   -0.0125    0.0000 C   0  0  0  0  0  0  0  0  0
   -3.0005   -0.8195    0.0000 C   0  0  0  0  0  0  0  0  0
   -4.1282    1.0494    0.0000 C   0  0  0  0  0  0  0  0  0
   -4.9128    1.3043    0.0000 C   0  0  0  0  0  0  0  0  0
   -5.5259    0.7523    0.0000 O   0  0  0  0  0  0  0  0  0
   -5.0844    2.1113    0.0000 C   0  0  0  0  0  0  0  0  0
   -5.8690    2.3662    0.0000 C   0  0  0  0  0  0  0  0  0
   -6.0405    3.1732    0.0000 C   0  0  0  0  0  0  0  0  0
   -5.4274    3.7252    0.0000 C   0  0  0  0  0  0  0  0  0
   -5.5989    4.5322    0.0000 F   0  0  0  0  0  0  0  0  0
   -4.6428    3.4703    0.0000 C   0  0  0  0  0  0  0  0  0
   -4.4713    2.6633    0.0000 C   0  0  0  0  0  0  0  0  0
  1  2  1  0  0  0  0
  2  3  4  0  0  0  0
  2  6  4  0  0  0  0
  3  4  4  0  0  0  0
  4  5  4  0  0  0  0
  5  6  4  0  0  0  0
  6  7  1  0  0  0  0
  7  8  2  0  0  0  0
  7  9  1  0  0  0  0
  9 10  1  0  0  0  0
  9 14  1  0  0  0  0
 10 11  1  0  0  0  0
 11 12  1  0  0  0  0
 12 13  1  0  0  0  0
 12 15  1  0  0  0  0
 13 14  1  0  0  0  0
 15 16  1  0  0  0  0
 16 17  2  0  0  0  0
 16 18  1  0  0  0  0
 18 19  4  0  0  0  0
 18 24  4  0  0  0  0
 19 20  4  0  0  0  0
 20 21  4  0  0  0  0
 21 22  1  0  0  0  0
 21 23  4  0  0  0  0
 23 24  4  0  0  0  0
M  STY  1   1 DAT
M  SAL   1  1   4
M  SDT   1 MRV_IMPLICIT_H                                        
M  SDD   1     0.0000    0.0000    DR    ALL  0       0  
M  SED   1 IMPL_H1
M  END
>  <Name_Molregno>
686807

>  <5-HT2A>
7.73

>  <5-HT2C>
5.56

$$$$
686808
  Marvin  02231216192D 0   1.00000     0.00000     0

 28 30  0  0  0  0  0  0  0  0999 V2000
    9.4317    2.5644    0.0000 F   0  0  0  0  0  0  0  0  0
    8.7173    2.1519    0.0000 C   0  0  0  0  0  0  0  0  0
    8.7173    1.3269    0.0000 C   0  0  0  0  0  0  0  0  0
    8.0028    0.9144    0.0000 C   0  0  0  0  0  0  0  0  0
    7.2883    1.3269    0.0000 C   0  0  0  0  0  0  0  0  0
    7.2883    2.1519    0.0000 C   0  0  0  0  0  0  0  0  0
    8.0028    2.5644    0.0000 C   0  0  0  0  0  0  0  0  0
    6.5738    0.9144    0.0000 C   0  0  0  0  0  0  0  0  0
    5.8594    1.3269    0.0000 O   0  0  0  0  0  0  0  0  0
    6.5738    0.0894    0.0000 C   0  0  0  0  0  0  0  0  0
    5.8594   -0.3231    0.0000 N   0  0  0  0  0  0  0  0  0
    5.8594   -1.1481    0.0000 C   0  0  0  0  0  0  0  0  0
    5.1449   -1.5606    0.0000 C   0  0  0  0  0  0  0  0  0
    4.4304   -1.1481    0.0000 N   0  0  0  0  0  0  0  0  0
    4.4304   -0.3231    0.0000 C   0  0  0  0  0  0  0  0  0
    5.1449    0.0894    0.0000 C   0  0  0  0  0  0  0  0  0
    3.7160   -1.5606    0.0000 C   0  0  0  0  0  0  0  0  0
    3.0015   -1.1481    0.0000 O   0  0  0  0  0  0  0  0  0
    3.7160   -2.3856    0.0000 C   0  0  0  0  0  0  0  0  0
    4.3834   -2.8705    0.0000 N   0  0  0  0  0  0  0  0  0
    4.1285   -3.6551    0.0000 N   0  0  0  0  0  0  0  0  0
    3.3035   -3.6551    0.0000 C   0  0  0  0  0  0  0  0  0
    3.0485   -2.8705    0.0000 C   0  0  0  0  0  0  0  0  0
    2.2639   -2.6156    0.0000 C   0  0  0  0  0  0  0  0  0
    1.4793   -2.3606    0.0000 F   0  0  0  0  0  0  0  0  0
    2.5188   -1.8310    0.0000 F   0  0  0  0  0  0  0  0  0
    2.0090   -3.4002    0.0000 F   0  0  0  0  0  0  0  0  0
    4.6134   -4.3226    0.0000 C   0  0  0  0  0  0  0  0  0
  1  2  1  0  0  0  0
  2  3  4  0  0  0  0
  2  7  4  0  0  0  0
  3  4  4  0  0  0  0
  4  5  4  0  0  0  0
  5  6  4  0  0  0  0
  5  8  1  0  0  0  0
  6  7  4  0  0  0  0
  8  9  2  0  0  0  0
  8 10  1  0  0  0  0
 10 11  1  0  0  0  0
 11 12  1  0  0  0  0
 11 16  1  0  0  0  0
 12 13  1  0  0  0  0
 13 14  1  0  0  0  0
 14 15  1  0  0  0  0
 14 17  1  0  0  0  0
 15 16  1  0  0  0  0
 17 18  2  0  0  0  0
 17 19  1  0  0  0  0
 19 20  4  0  0  0  0
 19 23  4  0  0  0  0
 20 21  4  0  0  0  0
 21 22  4  0  0  0  0
 21 28  1  0  0  0  0
 22 23  4  0  0  0  0
 23 24  1  0  0  0  0
 24 25  1  0  0  0  0
 24 26  1  0  0  0  0
 24 27  1  0  0  0  0
M  END
>  <Name_Molregno>
686808

>  <5-HT2A>
7.55

>  <5-HT2C>
5.41

$$$$
686809
  Marvin  02231216192D 0   1.00000     0.00000     0

 25 27  0  0  0  0  0  0  0  0999 V2000
   -2.5369   -1.4790    0.0000 I   0  0  0  0  0  0  0  0  0
   -2.5369   -2.3040    0.0000 C   0  0  0  0  0  0  0  0  0
   -1.8695   -2.7889    0.0000 C   0  0  0  0  0  0  0  0  0
   -2.1244   -3.5735    0.0000 N   0  0  0  0  0  0  0  0  0
   -2.9494   -3.5735    0.0000 N   0  0  0  0  0  0  0  0  0
   -3.2044   -2.7889    0.0000 C   0  0  0  0  0  0  0  0  0
   -3.9890   -2.5340    0.0000 C   0  0  0  0  0  0  0  0  0
   -4.6021   -3.0860    0.0000 O   0  0  0  0  0  0  0  0  0
   -4.1605   -1.7270    0.0000 N   0  0  0  0  0  0  0  0  0
   -4.9452   -1.4721    0.0000 C   0  0  0  0  0  0  0  0  0
   -5.1167   -0.6651    0.0000 C   0  0  0  0  0  0  0  0  0
   -4.5036   -0.1131    0.0000 N   0  0  0  0  0  0  0  0  0
   -3.7190   -0.3680    0.0000 C   0  0  0  0  0  0  0  0  0
   -3.5474   -1.1750    0.0000 C   0  0  0  0  0  0  0  0  0
   -4.6751    0.6939    0.0000 C   0  0  0  0  0  0  0  0  0
   -4.0620    1.2460    0.0000 C   0  0  0  0  0  0  0  0  0
   -3.2774    0.9910    0.0000 O   0  0  0  0  0  0  0  0  0
   -4.2335    2.0529    0.0000 C   0  0  0  0  0  0  0  0  0
   -5.0182    2.3079    0.0000 C   0  0  0  0  0  0  0  0  0
   -5.1897    3.1148    0.0000 C   0  0  0  0  0  0  0  0  0
   -4.5766    3.6669    0.0000 C   0  0  0  0  0  0  0  0  0
   -4.7481    4.4738    0.0000 F   0  0  0  0  0  0  0  0  0
   -3.7920    3.4119    0.0000 C   0  0  0  0  0  0  0  0  0
   -3.6204    2.6050    0.0000 C   0  0  0  0  0  0  0  0  0
   -1.6395   -4.2410    0.0000 C   0  0  0  0  0  0  0  0  0
  1  2  1  0  0  0  0
  2  3  4  0  0  0  0
  2  6  4  0  0  0  0
  3  4  4  0  0  0  0
  4  5  4  0  0  0  0
  4 25  1  0  0  0  0
  5  6  4  0  0  0  0
  6  7  1  0  0  0  0
  7  8  2  0  0  0  0
  7  9  1  0  0  0  0
  9 10  1  0  0  0  0
  9 14  1  0  0  0  0
 10 11  1  0  0  0  0
 11 12  1  0  0  0  0
 12 13  1  0  0  0  0
 12 15  1  0  0  0  0
 13 14  1  0  0  0  0
 15 16  1  0  0  0  0
 16 17  2  0  0  0  0
 16 18  1  0  0  0  0
 18 19  4  0  0  0  0
 18 24  4  0  0  0  0
 19 20  4  0  0  0  0
 20 21  4  0  0  0  0
 21 22  1  0  0  0  0
 21 23  4  0  0  0  0
 23 24  4  0  0  0  0
M  END
>  <Name_Molregno>
686809

>  <5-HT2A>
8.35

>  <5-HT2C>
5.41

$$$$
686878
  Marvin  02231216192D 0   1.00000     0.00000     0

 30 33  0  0  0  0  0  0  0  0999 V2000
    0.7645    1.9564    0.0000 F   0  0  0  0  0  0  0  0  0
    1.4790    1.5439    0.0000 C   0  0  0  0  0  0  0  0  0
    2.1935    1.9564    0.0000 C   0  0  0  0  0  0  0  0  0
    2.9080    1.5439    0.0000 C   0  0  0  0  0  0  0  0  0
    2.9080    0.7189    0.0000 C   0  0  0  0  0  0  0  0  0
    2.1935    0.3064    0.0000 C   0  0  0  0  0  0  0  0  0
    1.4790    0.7189    0.0000 C   0  0  0  0  0  0  0  0  0
    3.6224    0.3064    0.0000 C   0  0  0  0  0  0  0  0  0
    3.6224   -0.5186    0.0000 O   0  0  0  0  0  0  0  0  0
    4.3369    0.7189    0.0000 C   0  0  0  0  0  0  0  0  0
    5.0514    0.3064    0.0000 N   0  0  0  0  0  0  0  0  0
    5.7658    0.7189    0.0000 C   0  0  0  0  0  0  0  0  0
    6.4803    0.3064    0.0000 C   0  0  0  0  0  0  0  0  0
    6.4803   -0.5186    0.0000 N   0  0  0  0  0  0  0  0  0
    5.7658   -0.9311    0.0000 C   0  0  0  0  0  0  0  0  0
    5.0514   -0.5186    0.0000 C   0  0  0  0  0  0  0  0  0
    7.1948   -0.9311    0.0000 C   0  0  0  0  0  0  0  0  0
    7.9092   -0.5186    0.0000 O   0  0  0  0  0  0  0  0  0
    7.1948   -1.7561    0.0000 C   0  0  0  0  0  0  0  0  0
    7.8622   -2.2410    0.0000 N   0  0  0  0  0  0  0  0  0
    7.6073   -3.0256    0.0000 N   0  0  0  0  0  0  0  0  0
    6.7823   -3.0256    0.0000 C   0  0  0  0  0  0  0  0  0
    6.5273   -2.2410    0.0000 C   0  0  0  0  0  0  0  0  0
    6.2974   -3.6931    0.0000 C   0  0  0  0  0  0  0  0  0
    8.0922   -3.6931    0.0000 C   0  0  0  0  0  0  0  0  0
    8.9127   -3.6068    0.0000 C   0  0  0  0  0  0  0  0  0
    9.3976   -4.2743    0.0000 C   0  0  0  0  0  0  0  0  0
    9.0620   -5.0279    0.0000 C   0  0  0  0  0  0  0  0  0
    8.2416   -5.1142    0.0000 C   0  0  0  0  0  0  0  0  0
    7.7566   -4.4467    0.0000 C   0  0  0  0  0  0  0  0  0
  1  2  1  0  0  0  0
  2  3  4  0  0  0  0
  2  7  4  0  0  0  0
  3  4  4  0  0  0  0
  4  5  4  0  0  0  0
  5  6  4  0  0  0  0
  5  8  1  0  0  0  0
  6  7  4  0  0  0  0
  8  9  2  0  0  0  0
  8 10  1  0  0  0  0
 10 11  1  0  0  0  0
 11 12  1  0  0  0  0
 11 16  1  0  0  0  0
 12 13  1  0  0  0  0
 13 14  1  0  0  0  0
 14 15  1  0  0  0  0
 14 17  1  0  0  0  0
 15 16  1  0  0  0  0
 17 18  2  0  0  0  0
 17 19  1  0  0  0  0
 19 20  4  0  0  0  0
 19 23  4  0  0  0  0
 20 21  4  0  0  0  0
 21 22  4  0  0  0  0
 21 25  1  0  0  0  0
 22 23  4  0  0  0  0
 22 24  1  0  0  0  0
 25 26  4  0  0  0  0
 25 30  4  0  0  0  0
 26 27  4  0  0  0  0
 27 28  4  0  0  0  0
 28 29  4  0  0  0  0
 29 30  4  0  0  0  0
M  END
>  <Name_Molregno>
686878

>  <5-HT2A>
7.96

>  <5-HT2C>
5.43

$$$$
687528
  Marvin  02231216192D 0   1.00000     0.00000     0

 28 31  0  0  0  0  0  0  0  0999 V2000
   10.4677   -1.8517    0.0000 F   0  0  0  0  0  0  0  0  0
    9.7532   -1.4392    0.0000 C   0  0  0  0  0  0  0  0  0
    9.0387   -1.8517    0.0000 C   0  0  0  0  0  0  0  0  0
    8.3243   -1.4392    0.0000 C   0  0  0  0  0  0  0  0  0
    8.3243   -0.6142    0.0000 C   0  0  0  0  0  0  0  0  0
    9.0387   -0.2017    0.0000 C   0  0  0  0  0  0  0  0  0
    9.7532   -0.6142    0.0000 C   0  0  0  0  0  0  0  0  0
    7.6098   -0.2017    0.0000 C   0  0  0  0  0  0  0  0  0
    6.8953   -0.6142    0.0000 C   0  0  0  0  0  0  0  0  0
    6.1809   -0.2017    0.0000 N   0  0  0  0  0  0  0  0  0
    5.4664   -0.6142    0.0000 C   0  0  0  0  0  0  0  0  0
    4.7519   -0.2017    0.0000 C   0  0  0  0  0  0  0  0  0
    4.7519    0.6233    0.0000 N   0  0  0  0  0  0  0  0  0
    5.4664    1.0358    0.0000 C   0  0  0  0  0  0  0  0  0
    6.1809    0.6233    0.0000 C   0  0  0  0  0  0  0  0  0
    4.0375    1.0358    0.0000 C   0  0  0  0  0  0  0  0  0
    3.3230    0.6233    0.0000 O   0  0  0  0  0  0  0  0  0
    4.0375    1.8608    0.0000 C   0  0  0  0  0  0  0  0  0
    3.3230    2.2733    0.0000 C   0  0  0  0  0  0  0  0  0
    2.5384    2.0183    0.0000 N   0  0  0  0  0  0  0  0  0
    2.0534    2.6858    0.0000 C   0  0  0  0  0  0  0  0  0
    2.5384    3.3532    0.0000 C   0  0  0  0  0  0  0  0  0
    3.3230    3.0983    0.0000 C   0  0  0  0  0  0  0  0  0
    4.0375    3.5108    0.0000 C   0  0  0  0  0  0  0  0  0
    4.7519    3.0983    0.0000 C   0  0  0  0  0  0  0  0  0
    4.7519    2.2733    0.0000 C   0  0  0  0  0  0  0  0  0
    2.2834    4.1378    0.0000 C   0  0  0  0  0  0  0  0  0
    2.0285    4.9224    0.0000 N   0  0  0  0  0  0  0  0  0
  1  2  1  0  0  0  0
  2  3  4  0  0  0  0
  2  7  4  0  0  0  0
  3  4  4  0  0  0  0
  4  5  4  0  0  0  0
  5  6  4  0  0  0  0
  5  8  1  0  0  0  0
  6  7  4  0  0  0  0
  8  9  1  0  0  0  0
  9 10  1  0  0  0  0
 10 11  1  0  0  0  0
 10 15  1  0  0  0  0
 11 12  1  0  0  0  0
 12 13  1  0  0  0  0
 13 14  1  0  0  0  0
 13 16  1  0  0  0  0
 14 15  1  0  0  0  0
 16 17  2  0  0  0  0
 16 18  1  0  0  0  0
 18 19  4  0  0  0  0
 18 26  4  0  0  0  0
 19 20  4  0  0  0  0
 19 23  4  0  0  0  0
 20 21  4  0  0  0  0
 21 22  4  0  0  0  0
 22 23  4  0  0  0  0
 22 27  1  0  0  0  0
 23 24  4  0  0  0  0
 24 25  4  0  0  0  0
 25 26  4  0  0  0  0
 27 28  3  0  0  0  0
M  STY  1   1 DAT
M  SAL   1  1  20
M  SDT   1 MRV_IMPLICIT_H                                        
M  SDD   1     0.0000    0.0000    DR    ALL  0       0  
M  SED   1 IMPL_H1
M  END
>  <Name_Molregno>
687528

>  <5-HT2A>
9.32

>  <5-HT2C>
6.19

$$$$
687592
  Marvin  02231216192D 0   1.00000     0.00000     0

 33 36  0  0  0  0  0  0  0  0999 V2000
    0.3723    2.1030    0.0000 Cl  0  0  0  0  0  0  0  0  0
    0.3723    1.2780    0.0000 C   0  0  0  0  0  0  0  0  0
    1.0397    0.7930    0.0000 C   0  0  0  0  0  0  0  0  0
    0.7848    0.0084    0.0000 N   0  0  0  0  0  0  0  0  0
   -0.0402    0.0084    0.0000 N   0  0  0  0  0  0  0  0  0
   -0.5251   -0.6590    0.0000 C   0  0  0  0  0  0  0  0  0
   -0.2951    0.7930    0.0000 C   0  0  0  0  0  0  0  0  0
   -1.0798    1.0480    0.0000 C   0  0  0  0  0  0  0  0  0
   -1.6929    0.4959    0.0000 C   0  0  0  0  0  0  0  0  0
   -2.4775    0.7509    0.0000 C   0  0  0  0  0  0  0  0  0
   -3.0906    0.1988    0.0000 N   0  0  0  0  0  0  0  0  0
   -2.9190   -0.6081    0.0000 C   0  0  0  0  0  0  0  0  0
   -2.1344   -0.8631    0.0000 O   0  0  0  0  0  0  0  0  0
   -3.5321   -1.1602    0.0000 N   0  0  0  0  0  0  0  0  0
   -3.3606   -1.9671    0.0000 C   0  0  0  0  0  0  0  0  0
   -3.9737   -2.5192    0.0000 C   0  0  0  0  0  0  0  0  0
   -4.7583   -2.2642    0.0000 N   0  0  0  0  0  0  0  0  0
   -4.9299   -1.4573    0.0000 C   0  0  0  0  0  0  0  0  0
   -4.3168   -0.9052    0.0000 C   0  0  0  0  0  0  0  0  0
   -5.3714   -2.8163    0.0000 C   0  0  0  0  0  0  0  0  0
   -5.1999   -3.6232    0.0000 C   0  0  0  0  0  0  0  0  0
   -5.8130   -4.1753    0.0000 C   0  0  0  0  0  0  0  0  0
   -5.6415   -4.9822    0.0000 C   0  0  0  0  0  0  0  0  0
   -6.2546   -5.5343    0.0000 C   0  0  0  0  0  0  0  0  0
   -7.0392   -5.2793    0.0000 C   0  0  0  0  0  0  0  0  0
   -7.6523   -5.8314    0.0000 F   0  0  0  0  0  0  0  0  0
   -7.2107   -4.4724    0.0000 C   0  0  0  0  0  0  0  0  0
   -6.5976   -3.9203    0.0000 C   0  0  0  0  0  0  0  0  0
   -2.6490    1.5578    0.0000 C   0  0  0  0  0  0  0  0  0
   -2.0359    2.1099    0.0000 C   0  0  0  0  0  0  0  0  0
   -1.2513    1.8549    0.0000 C   0  0  0  0  0  0  0  0  0
   -0.6382    2.4070    0.0000 O   0  0  0  0  0  0  0  0  0
   -0.8097    3.2139    0.0000 C   0  0  0  0  0  0  0  0  0
  1  2  1  0  0  0  0
  2  3  4  0  0  0  0
  2  7  4  0  0  0  0
  3  4  4  0  0  0  0
  4  5  4  0  0  0  0
  5  6  1  0  0  0  0
  5  7  4  0  0  0  0
  7  8  1  0  0  0  0
  8  9  4  0  0  0  0
  8 31  4  0  0  0  0
  9 10  4  0  0  0  0
 10 11  1  0  0  0  0
 10 29  4  0  0  0  0
 11 12  1  0  0  0  0
 12 13  2  0  0  0  0
 12 14  1  0  0  0  0
 14 15  1  0  0  0  0
 14 19  1  0  0  0  0
 15 16  1  0  0  0  0
 16 17  1  0  0  0  0
 17 18  1  0  0  0  0
 17 20  1  0  0  0  0
 18 19  1  0  0  0  0
 20 21  1  0  0  0  0
 21 22  1  0  0  0  0
 22 23  4  0  0  0  0
 22 28  4  0  0  0  0
 23 24  4  0  0  0  0
 24 25  4  0  0  0  0
 25 26  1  0  0  0  0
 25 27  4  0  0  0  0
 27 28  4  0  0  0  0
 29 30  4  0  0  0  0
 30 31  4  0  0  0  0
 31 32  1  0  0  0  0
 32 33  1  0  0  0  0
M  END
>  <Name_Molregno>
687592

>  <5-HT2A>
6.81

>  <5-HT2C>
5

$$$$
687593
  Marvin  02231216192D 0   1.00000     0.00000     0

 24 26  0  0  0  0  0  0  0  0999 V2000
   -0.0236    0.7266    0.0000 Br  0  0  0  0  0  0  0  0  0
   -0.0236   -0.0984    0.0000 C   0  0  0  0  0  0  0  0  0
    0.6439   -0.5833    0.0000 C   0  0  0  0  0  0  0  0  0
    0.3889   -1.3679    0.0000 N   0  0  0  0  0  0  0  0  0
   -0.4361   -1.3679    0.0000 N   0  0  0  0  0  0  0  0  0
   -0.6910   -0.5833    0.0000 C   0  0  0  0  0  0  0  0  0
   -1.4756   -0.3283    0.0000 N   0  0  0  0  0  0  0  0  0
   -2.0887   -0.8804    0.0000 C   0  0  0  0  0  0  0  0  0
   -1.9172   -1.6873    0.0000 O   0  0  0  0  0  0  0  0  0
   -2.8734   -0.6254    0.0000 N   0  0  0  0  0  0  0  0  0
   -3.4865   -1.1775    0.0000 C   0  0  0  0  0  0  0  0  0
   -4.2711   -0.9225    0.0000 C   0  0  0  0  0  0  0  0  0
   -4.4426   -0.1156    0.0000 N   0  0  0  0  0  0  0  0  0
   -3.8295    0.4365    0.0000 C   0  0  0  0  0  0  0  0  0
   -3.0449    0.1815    0.0000 C   0  0  0  0  0  0  0  0  0
   -5.2272    0.1394    0.0000 C   0  0  0  0  0  0  0  0  0
   -5.8403   -0.4126    0.0000 C   0  0  0  0  0  0  0  0  0
   -6.6249   -0.1577    0.0000 C   0  0  0  0  0  0  0  0  0
   -7.2380   -0.7097    0.0000 C   0  0  0  0  0  0  0  0  0
   -8.0227   -0.4548    0.0000 C   0  0  0  0  0  0  0  0  0
   -8.1942    0.3522    0.0000 C   0  0  0  0  0  0  0  0  0
   -8.9788    0.6071    0.0000 F   0  0  0  0  0  0  0  0  0
   -7.5811    0.9042    0.0000 C   0  0  0  0  0  0  0  0  0
   -6.7965    0.6493    0.0000 C   0  0  0  0  0  0  0  0  0
  1  2  1  0  0  0  0
  2  3  4  0  0  0  0
  2  6  4  0  0  0  0
  3  4  4  0  0  0  0
  4  5  4  0  0  0  0
  5  6  4  0  0  0  0
  6  7  1  0  0  0  0
  7  8  1  0  0  0  0
  8  9  2  0  0  0  0
  8 10  1  0  0  0  0
 10 11  1  0  0  0  0
 10 15  1  0  0  0  0
 11 12  1  0  0  0  0
 12 13  1  0  0  0  0
 13 14  1  0  0  0  0
 13 16  1  0  0  0  0
 14 15  1  0  0  0  0
 16 17  1  0  0  0  0
 17 18  1  0  0  0  0
 18 19  4  0  0  0  0
 18 24  4  0  0  0  0
 19 20  4  0  0  0  0
 20 21  4  0  0  0  0
 21 22  1  0  0  0  0
 21 23  4  0  0  0  0
 23 24  4  0  0  0  0
M  STY  1   1 DAT
M  SAL   1  1   4
M  SDT   1 MRV_IMPLICIT_H                                        
M  SDD   1     0.0000    0.0000    DR    ALL  0       0  
M  SED   1 IMPL_H1
M  END
>  <Name_Molregno>
687593

>  <5-HT2A>
7.06

>  <5-HT2C>
5

$$$$
687594
  Marvin  02231216192D 0   1.00000     0.00000     0

 24 26  0  0  0  0  0  0  0  0999 V2000
   -2.3854   -1.9581    0.0000 Br  0  0  0  0  0  0  0  0  0
   -2.3854   -2.7831    0.0000 C   0  0  0  0  0  0  0  0  0
   -1.7180   -3.2681    0.0000 C   0  0  0  0  0  0  0  0  0
   -1.9729   -4.0527    0.0000 N   0  0  0  0  0  0  0  0  0
   -2.7979   -4.0527    0.0000 N   0  0  0  0  0  0  0  0  0
   -3.0528   -3.2681    0.0000 C   0  0  0  0  0  0  0  0  0
   -3.8375   -3.0131    0.0000 C   0  0  0  0  0  0  0  0  0
   -4.4506   -3.5652    0.0000 O   0  0  0  0  0  0  0  0  0
   -4.0090   -2.2062    0.0000 N   0  0  0  0  0  0  0  0  0
   -4.7936   -1.9512    0.0000 C   0  0  0  0  0  0  0  0  0
   -4.9651   -1.1442    0.0000 C   0  0  0  0  0  0  0  0  0
   -4.3520   -0.5922    0.0000 N   0  0  0  0  0  0  0  0  0
   -3.5674   -0.8471    0.0000 C   0  0  0  0  0  0  0  0  0
   -3.3959   -1.6541    0.0000 C   0  0  0  0  0  0  0  0  0
   -4.5236    0.2148    0.0000 C   0  0  0  0  0  0  0  0  0
   -3.9105    0.7668    0.0000 C   0  0  0  0  0  0  0  0  0
   -4.0820    1.5738    0.0000 C   0  0  0  0  0  0  0  0  0
   -4.8666    1.8287    0.0000 C   0  0  0  0  0  0  0  0  0
   -5.0381    2.6357    0.0000 C   0  0  0  0  0  0  0  0  0
   -4.4251    3.1877    0.0000 C   0  0  0  0  0  0  0  0  0
   -4.5966    3.9947    0.0000 F   0  0  0  0  0  0  0  0  0
   -3.6404    2.9328    0.0000 C   0  0  0  0  0  0  0  0  0
   -3.4689    2.1258    0.0000 C   0  0  0  0  0  0  0  0  0
   -1.4880   -4.7201    0.0000 C   0  0  0  0  0  0  0  0  0
  1  2  1  0  0  0  0
  2  3  4  0  0  0  0
  2  6  4  0  0  0  0
  3  4  4  0  0  0  0
  4  5  4  0  0  0  0
  4 24  1  0  0  0  0
  5  6  4  0  0  0  0
  6  7  1  0  0  0  0
  7  8  2  0  0  0  0
  7  9  1  0  0  0  0
  9 10  1  0  0  0  0
  9 14  1  0  0  0  0
 10 11  1  0  0  0  0
 11 12  1  0  0  0  0
 12 13  1  0  0  0  0
 12 15  1  0  0  0  0
 13 14  1  0  0  0  0
 15 16  1  0  0  0  0
 16 17  1  0  0  0  0
 17 18  4  0  0  0  0
 17 23  4  0  0  0  0
 18 19  4  0  0  0  0
 19 20  4  0  0  0  0
 20 21  1  0  0  0  0
 20 22  4  0  0  0  0
 22 23  4  0  0  0  0
M  END
>  <Name_Molregno>
687594

>  <5-HT2A>
8.44

>  <5-HT2C>
5.38

$$$$
687595
  Marvin  02231216192D 0   1.00000     0.00000     0

 23 25  0  0  0  0  0  0  0  0999 V2000
   -2.1661   -1.9163    0.0000 Br  0  0  0  0  0  0  0  0  0
   -2.1661   -2.7413    0.0000 C   0  0  0  0  0  0  0  0  0
   -1.4986   -3.2262    0.0000 C   0  0  0  0  0  0  0  0  0
   -1.7536   -4.0108    0.0000 N   0  0  0  0  0  0  0  0  0
   -2.5786   -4.0108    0.0000 N   0  0  0  0  0  0  0  0  0
   -2.8335   -3.2262    0.0000 C   0  0  0  0  0  0  0  0  0
   -3.6181   -2.9712    0.0000 C   0  0  0  0  0  0  0  0  0
   -4.2312   -3.5233    0.0000 O   0  0  0  0  0  0  0  0  0
   -3.7897   -2.1643    0.0000 N   0  0  0  0  0  0  0  0  0
   -4.5743   -1.9093    0.0000 C   0  0  0  0  0  0  0  0  0
   -4.7458   -1.1024    0.0000 C   0  0  0  0  0  0  0  0  0
   -4.1327   -0.5503    0.0000 N   0  0  0  0  0  0  0  0  0
   -3.3481   -0.8053    0.0000 C   0  0  0  0  0  0  0  0  0
   -3.1766   -1.6122    0.0000 C   0  0  0  0  0  0  0  0  0
   -4.3042    0.2566    0.0000 C   0  0  0  0  0  0  0  0  0
   -3.6911    0.8087    0.0000 C   0  0  0  0  0  0  0  0  0
   -3.8627    1.6156    0.0000 C   0  0  0  0  0  0  0  0  0
   -4.6473    1.8706    0.0000 C   0  0  0  0  0  0  0  0  0
   -4.8188    2.6776    0.0000 C   0  0  0  0  0  0  0  0  0
   -4.2057    3.2296    0.0000 C   0  0  0  0  0  0  0  0  0
   -3.4211    2.9746    0.0000 C   0  0  0  0  0  0  0  0  0
   -3.2496    2.1677    0.0000 C   0  0  0  0  0  0  0  0  0
   -1.2686   -4.6782    0.0000 C   0  0  0  0  0  0  0  0  0
  1  2  1  0  0  0  0
  2  3  4  0  0  0  0
  2  6  4  0  0  0  0
  3  4  4  0  0  0  0
  4  5  4  0  0  0  0
  4 23  1  0  0  0  0
  5  6  4  0  0  0  0
  6  7  1  0  0  0  0
  7  8  2  0  0  0  0
  7  9  1  0  0  0  0
  9 10  1  0  0  0  0
  9 14  1  0  0  0  0
 10 11  1  0  0  0  0
 11 12  1  0  0  0  0
 12 13  1  0  0  0  0
 12 15  1  0  0  0  0
 13 14  1  0  0  0  0
 15 16  1  0  0  0  0
 16 17  1  0  0  0  0
 17 18  4  0  0  0  0
 17 22  4  0  0  0  0
 18 19  4  0  0  0  0
 19 20  4  0  0  0  0
 20 21  4  0  0  0  0
 21 22  4  0  0  0  0
M  END
>  <Name_Molregno>
687595

>  <5-HT2A>
7.17

>  <5-HT2C>
5

$$$$
688989
  Marvin  02231216192D 0   1.00000     0.00000     0

 20 23  0  0  0  0  0  0  0  0999 V2000
    0.9335    0.0052    0.0000 N   0  0  0  0  0  0  0  0  0
    1.1261   -0.7970    0.0000 C   0  0  0  0  0  0  0  0  0
    1.9485   -0.8618    0.0000 N   0  0  0  0  0  0  0  0  0
    2.2643   -0.0996    0.0000 C   0  0  0  0  0  0  0  0  0
    1.6370    0.4362    0.0000 C   0  0  0  0  0  0  0  0  0
    0.6190   -1.4477    0.0000 C   0  0  0  0  0  0  0  0  0
    0.9852   -2.1870    0.0000 N   0  0  0  0  0  0  0  0  0
    1.8085   -2.2394    0.0000 C   0  0  0  0  0  0  0  0  0
    2.1748   -2.9787    0.0000 C   0  0  0  0  0  0  0  0  0
    1.7177   -3.6655    0.0000 N   0  0  0  0  0  0  0  0  0
    0.8943   -3.6130    0.0000 C   0  0  0  0  0  0  0  0  0
    0.5281   -2.8738    0.0000 C   0  0  0  0  0  0  0  0  0
   -0.2060   -1.4570    0.0000 C   0  0  0  0  0  0  0  0  0
   -0.7276   -0.8177    0.0000 C   0  0  0  0  0  0  0  0  0
   -0.5530   -0.0114    0.0000 C   0  0  0  0  0  0  0  0  0
    0.1863    0.3548    0.0000 C   0  0  0  0  0  0  0  0  0
   -1.1640    0.5429    0.0000 C   0  0  0  0  0  0  0  0  0
   -1.9496    0.2910    0.0000 C   0  0  0  0  0  0  0  0  0
   -2.1241   -0.5154    0.0000 C   0  0  0  0  0  0  0  0  0
   -1.5131   -1.0697    0.0000 C   0  0  0  0  0  0  0  0  0
  1  2  4  0  0  0  0
  1  5  4  0  0  0  0
  1 16  1  0  0  0  0
  2  3  4  0  0  0  0
  2  6  1  0  0  0  0
  3  4  4  0  0  0  0
  4  5  4  0  0  0  0
  6  7  1  0  0  0  0
  6 13  2  0  0  0  0
  7  8  1  0  0  0  0
  7 12  1  0  0  0  0
  8  9  1  0  0  0  0
  9 10  1  0  0  0  0
 10 11  1  0  0  0  0
 11 12  1  0  0  0  0
 13 14  1  0  0  0  0
 14 15  4  0  0  0  0
 14 20  4  0  0  0  0
 15 16  1  0  0  0  0
 15 17  4  0  0  0  0
 17 18  4  0  0  0  0
 18 19  4  0  0  0  0
 19 20  4  0  0  0  0
M  END
>  <Name_Molregno>
688989

>  <5-HT2A>
8.1

>  <5-HT2C>
7.7

>  <Alpha-1A>
8.4

>  <Alpha-1B>
8.5

>  <HISTAMINE H1>
9.2

$$$$
688990
  Marvin  02231216192D 0   1.00000     0.00000     0

 25 28  0  0  0  0  0  0  0  0999 V2000
    5.1076    5.5208    0.0000 O   0  0  0  0  0  0  0  0  0
    5.5647    4.8340    0.0000 C   0  0  0  0  0  0  0  0  0
    6.3880    4.8864    0.0000 O   0  0  0  0  0  0  0  0  0
    5.1985    4.0947    0.0000 C   0  0  0  0  0  0  0  0  0
    5.6556    3.4079    0.0000 C   0  0  0  0  0  0  0  0  0
    5.2893    2.6687    0.0000 N   0  0  0  0  0  0  0  0  0
    5.7464    1.9819    0.0000 C   0  0  0  0  0  0  0  0  0
    5.3802    1.2426    0.0000 C   0  0  0  0  0  0  0  0  0
    4.5568    1.1902    0.0000 N   0  0  0  0  0  0  0  0  0
    4.0997    1.8770    0.0000 C   0  0  0  0  0  0  0  0  0
    4.4660    2.6162    0.0000 C   0  0  0  0  0  0  0  0  0
    4.1906    0.4509    0.0000 C   0  0  0  0  0  0  0  0  0
    4.6977   -0.1998    0.0000 C   0  0  0  0  0  0  0  0  0
    4.5052   -1.0020    0.0000 N   0  0  0  0  0  0  0  0  0
    3.7579   -1.3516    0.0000 C   0  0  0  0  0  0  0  0  0
    3.0187   -0.9854    0.0000 C   0  0  0  0  0  0  0  0  0
    2.8441   -0.1791    0.0000 C   0  0  0  0  0  0  0  0  0
    3.3656    0.4601    0.0000 C   0  0  0  0  0  0  0  0  0
    2.0585    0.0729    0.0000 C   0  0  0  0  0  0  0  0  0
    1.4475   -0.4815    0.0000 C   0  0  0  0  0  0  0  0  0
    1.6221   -1.2878    0.0000 C   0  0  0  0  0  0  0  0  0
    2.4077   -1.5398    0.0000 C   0  0  0  0  0  0  0  0  0
    5.2086   -1.4331    0.0000 C   0  0  0  0  0  0  0  0  0
    5.8359   -0.8972    0.0000 C   0  0  0  0  0  0  0  0  0
    5.5202   -0.1351    0.0000 N   0  0  0  0  0  0  0  0  0
  1  2  1  0  0  0  0
  2  3  2  0  0  0  0
  2  4  1  0  0  0  0
  4  5  1  0  0  0  0
  5  6  1  0  0  0  0
  6  7  1  0  0  0  0
  6 11  1  0  0  0  0
  7  8  1  0  0  0  0
  8  9  1  0  0  0  0
  9 10  1  0  0  0  0
  9 12  1  0  0  0  0
 10 11  1  0  0  0  0
 12 13  1  0  0  0  0
 12 18  2  0  0  0  0
 13 14  4  0  0  0  0
 13 25  4  0  0  0  0
 14 15  1  0  0  0  0
 14 23  4  0  0  0  0
 15 16  1  0  0  0  0
 16 17  4  0  0  0  0
 16 22  4  0  0  0  0
 17 18  1  0  0  0  0
 17 19  4  0  0  0  0
 19 20  4  0  0  0  0
 20 21  4  0  0  0  0
 21 22  4  0  0  0  0
 23 24  4  0  0  0  0
 24 25  4  0  0  0  0
M  END
>  <Name_Molregno>
688990

>  <5-HT2A>
6.5

>  <5-HT2C>
6.1

>  <HISTAMINE H1>
7.3

$$$$
688991
  Marvin  02231216192D 0   1.00000     0.00000     0

 27 30  0  0  0  0  0  0  0  0999 V2000
    4.9506    3.2046    0.0000 O   0  0  0  0  0  0  0  0  0
    4.5843    2.4654    0.0000 C   0  0  0  0  0  0  0  0  0
    3.7610    2.4129    0.0000 O   0  0  0  0  0  0  0  0  0
    5.0414    1.7786    0.0000 C   0  0  0  0  0  0  0  0  0
    5.4985    1.0918    0.0000 C   0  0  0  0  0  0  0  0  0
    5.1323    0.3525    0.0000 N   0  0  0  0  0  0  0  0  0
    5.5894   -0.3343    0.0000 C   0  0  0  0  0  0  0  0  0
    5.2231   -1.0735    0.0000 C   0  0  0  0  0  0  0  0  0
    4.3998   -1.1260    0.0000 N   0  0  0  0  0  0  0  0  0
    3.9427   -0.4392    0.0000 C   0  0  0  0  0  0  0  0  0
    4.3090    0.3001    0.0000 C   0  0  0  0  0  0  0  0  0
    4.0336   -1.8652    0.0000 C   0  0  0  0  0  0  0  0  0
    4.5407   -2.5160    0.0000 C   0  0  0  0  0  0  0  0  0
    4.3481   -3.3182    0.0000 N   0  0  0  0  0  0  0  0  0
    3.6009   -3.6678    0.0000 C   0  0  0  0  0  0  0  0  0
    2.8616   -3.3016    0.0000 C   0  0  0  0  0  0  0  0  0
    2.6871   -2.4952    0.0000 C   0  0  0  0  0  0  0  0  0
    3.2086   -1.8560    0.0000 C   0  0  0  0  0  0  0  0  0
    1.9015   -2.2433    0.0000 C   0  0  0  0  0  0  0  0  0
    1.2905   -2.7976    0.0000 C   0  0  0  0  0  0  0  0  0
    1.4651   -3.6039    0.0000 C   0  0  0  0  0  0  0  0  0
    2.2506   -3.8559    0.0000 C   0  0  0  0  0  0  0  0  0
    5.0516   -3.7492    0.0000 C   0  0  0  0  0  0  0  0  0
    5.6789   -3.2134    0.0000 C   0  0  0  0  0  0  0  0  0
    5.3632   -2.4512    0.0000 N   0  0  0  0  0  0  0  0  0
    4.3546    1.3215    0.0000 C   0  0  0  0  0  0  0  0  0
    5.7282    2.2356    0.0000 C   0  0  0  0  0  0  0  0  0
  1  2  1  0  0  0  0
  2  3  2  0  0  0  0
  2  4  1  0  0  0  0
  4  5  1  0  0  0  0
  4 26  1  0  0  0  0
  4 27  1  0  0  0  0
  5  6  1  0  0  0  0
  6  7  1  0  0  0  0
  6 11  1  0  0  0  0
  7  8  1  0  0  0  0
  8  9  1  0  0  0  0
  9 10  1  0  0  0  0
  9 12  1  0  0  0  0
 10 11  1  0  0  0  0
 12 13  1  0  0  0  0
 12 18  2  0  0  0  0
 13 14  4  0  0  0  0
 13 25  4  0  0  0  0
 14 15  1  0  0  0  0
 14 23  4  0  0  0  0
 15 16  1  0  0  0  0
 16 17  4  0  0  0  0
 16 22  4  0  0  0  0
 17 18  1  0  0  0  0
 17 19  4  0  0  0  0
 19 20  4  0  0  0  0
 20 21  4  0  0  0  0
 21 22  4  0  0  0  0
 23 24  4  0  0  0  0
 24 25  4  0  0  0  0
M  END
>  <Name_Molregno>
688991

>  <5-HT2A>
7.1

>  <5-HT2C>
7.3

>  <HISTAMINE H1>
7.6

$$$$
689061
  Marvin  02231216192D 0   1.00000     0.00000     0

 28 31  0  0  0  0  0  0  0  0999 V2000
   -1.8263    3.4140    0.0000 O   0  0  0  0  0  0  0  0  0
   -1.8356    2.5891    0.0000 C   0  0  0  0  0  0  0  0  0
   -1.1257    2.1686    0.0000 O   0  0  0  0  0  0  0  0  0
   -2.5546    2.1846    0.0000 C   0  0  0  0  0  0  0  0  0
   -3.2736    1.7801    0.0000 C   0  0  0  0  0  0  0  0  0
   -3.2829    0.9552    0.0000 N   0  0  0  0  0  0  0  0  0
   -2.5436    0.5889    0.0000 C   0  0  0  0  0  0  0  0  0
   -2.3690   -0.2174    0.0000 C   0  0  0  0  0  0  0  0  0
   -2.8906   -0.8566    0.0000 C   0  0  0  0  0  0  0  0  0
   -3.7155   -0.8474    0.0000 N   0  0  0  0  0  0  0  0  0
   -4.2227   -0.1967    0.0000 C   0  0  0  0  0  0  0  0  0
   -4.0301    0.6055    0.0000 C   0  0  0  0  0  0  0  0  0
   -4.0818   -1.5866    0.0000 C   0  0  0  0  0  0  0  0  0
   -3.5746   -2.2374    0.0000 C   0  0  0  0  0  0  0  0  0
   -3.7672   -3.0396    0.0000 N   0  0  0  0  0  0  0  0  0
   -4.5145   -3.3892    0.0000 C   0  0  0  0  0  0  0  0  0
   -5.2537   -3.0230    0.0000 C   0  0  0  0  0  0  0  0  0
   -5.4283   -2.2166    0.0000 C   0  0  0  0  0  0  0  0  0
   -4.9067   -1.5774    0.0000 C   0  0  0  0  0  0  0  0  0
   -6.2139   -1.9647    0.0000 C   0  0  0  0  0  0  0  0  0
   -6.8249   -2.5190    0.0000 C   0  0  0  0  0  0  0  0  0
   -6.6503   -3.3253    0.0000 C   0  0  0  0  0  0  0  0  0
   -5.8647   -3.5773    0.0000 C   0  0  0  0  0  0  0  0  0
   -3.0638   -3.4706    0.0000 C   0  0  0  0  0  0  0  0  0
   -2.4364   -2.9348    0.0000 C   0  0  0  0  0  0  0  0  0
   -2.7522   -2.1726    0.0000 N   0  0  0  0  0  0  0  0  0
   -2.9591    2.9036    0.0000 C   0  0  0  0  0  0  0  0  0
   -2.1501    1.4656    0.0000 C   0  0  0  0  0  0  0  0  0
  1  2  1  0  0  0  0
  2  3  2  0  0  0  0
  2  4  1  0  0  0  0
  4  5  1  0  0  0  0
  4 27  1  0  0  0  0
  4 28  1  0  0  0  0
  5  6  1  0  0  0  0
  6  7  1  0  0  0  0
  6 12  1  0  0  0  0
  7  8  1  0  0  0  0
  8  9  1  0  0  0  0
  9 10  1  0  0  0  0
 10 11  1  0  0  0  0
 10 13  1  0  0  0  0
 11 12  1  0  0  0  0
 13 14  1  0  0  0  0
 13 19  2  0  0  0  0
 14 15  4  0  0  0  0
 14 26  4  0  0  0  0
 15 16  1  0  0  0  0
 15 24  4  0  0  0  0
 16 17  1  0  0  0  0
 17 18  4  0  0  0  0
 17 23  4  0  0  0  0
 18 19  1  0  0  0  0
 18 20  4  0  0  0  0
 20 21  4  0  0  0  0
 21 22  4  0  0  0  0
 22 23  4  0  0  0  0
 24 25  4  0  0  0  0
 25 26  4  0  0  0  0
M  END
>  <Name_Molregno>
689061

>  <5-HT2A>
5.3

>  <5-HT2C>
5.7

>  <HISTAMINE H1>
7.3

$$$$
689062
  Marvin  02231216192D 0   1.00000     0.00000     0

 27 30  0  0  1  0  0  0  0  0999 V2000
   -3.4047    4.2700    0.0000 O   0  0  0  0  0  0  0  0  0
   -2.9476    3.5832    0.0000 C   0  0  0  0  0  0  0  0  0
   -2.1242    3.6357    0.0000 O   0  0  0  0  0  0  0  0  0
   -3.3138    2.8440    0.0000 C   0  0  0  0  0  0  0  0  0
   -2.8567    2.1572    0.0000 C   0  0  0  0  0  0  0  0  0
   -3.2230    1.4179    0.0000 N   0  0  0  0  0  0  0  0  0
   -2.7659    0.7311    0.0000 C   0  0  0  0  0  0  0  0  0
   -3.1321   -0.0081    0.0000 C   0  0  0  0  0  0  0  0  0
   -3.9554   -0.0606    0.0000 N   0  0  0  0  0  0  0  0  0
   -4.4125    0.6262    0.0000 C   0  0  0  0  0  0  0  0  0
   -4.0463    1.3655    0.0000 C   0  0  0  0  0  0  0  0  0
   -4.5034    2.0523    0.0000 C   0  0  0  0  0  0  0  0  0
   -4.3217   -0.7998    0.0000 C   0  0  0  0  0  0  0  0  0
   -3.8146   -1.4505    0.0000 C   0  0  0  0  0  0  0  0  0
   -4.0071   -2.2527    0.0000 N   0  0  0  0  0  0  0  0  0
   -4.7544   -2.6024    0.0000 C   0  0  0  0  0  0  0  0  0
   -5.4936   -2.2361    0.0000 C   0  0  0  0  0  0  0  0  0
   -5.6682   -1.4298    0.0000 C   0  0  0  0  0  0  0  0  0
   -5.1466   -0.7906    0.0000 C   0  0  0  0  0  0  0  0  0
   -6.4538   -1.1778    0.0000 C   0  0  0  0  0  0  0  0  0
   -7.0648   -1.7322    0.0000 C   0  0  0  0  0  0  0  0  0
   -6.8902   -2.5385    0.0000 C   0  0  0  0  0  0  0  0  0
   -6.1046   -2.7905    0.0000 C   0  0  0  0  0  0  0  0  0
   -3.3037   -2.6838    0.0000 C   0  0  0  0  0  0  0  0  0
   -2.6764   -2.1480    0.0000 C   0  0  0  0  0  0  0  0  0
   -2.9921   -1.3858    0.0000 N   0  0  0  0  0  0  0  0  0
   -1.9425    0.7836    0.0000 C   0  0  0  0  0  0  0  0  0
  1  2  1  0  0  0  0
  2  3  2  0  0  0  0
  2  4  1  0  0  0  0
  4  5  1  0  0  0  0
  5  6  1  0  0  0  0
  6  7  1  0  0  0  0
  6 11  1  0  0  0  0
  7  8  1  0  0  0  0
  7 27  1  0  0  0  0
  8  9  1  0  0  0  0
  9 10  1  0  0  0  0
  9 13  1  0  0  0  0
 10 11  1  0  0  0  0
 11 12  1  0  0  0  0
 13 14  1  0  0  0  0
 13 19  2  0  0  0  0
 14 15  4  0  0  0  0
 14 26  4  0  0  0  0
 15 16  1  0  0  0  0
 15 24  4  0  0  0  0
 16 17  1  0  0  0  0
 17 18  4  0  0  0  0
 17 23  4  0  0  0  0
 18 19  1  0  0  0  0
 18 20  4  0  0  0  0
 20 21  4  0  0  0  0
 21 22  4  0  0  0  0
 22 23  4  0  0  0  0
 24 25  4  0  0  0  0
 25 26  4  0  0  0  0
M  END
>  <Name_Molregno>
689062

>  <5-HT2A>
7.4

>  <5-HT2C>
6.8

>  <HISTAMINE H1>
7.7

$$$$
689063
  Marvin  02231216192D 0   1.00000     0.00000     0

 26 29  0  0  0  0  0  0  0  0999 V2000
    4.9811    5.4437    0.0000 O   0  0  0  0  0  0  0  0  0
    5.4382    4.7569    0.0000 C   0  0  0  0  0  0  0  0  0
    6.2615    4.8093    0.0000 O   0  0  0  0  0  0  0  0  0
    5.0719    4.0176    0.0000 C   0  0  0  0  0  0  0  0  0
    5.5290    3.3308    0.0000 C   0  0  0  0  0  0  0  0  0
    5.1628    2.5916    0.0000 N   0  0  0  0  0  0  0  0  0
    5.6199    1.9048    0.0000 C   0  0  0  0  0  0  0  0  0
    5.2536    1.1655    0.0000 C   0  0  0  0  0  0  0  0  0
    4.4303    1.1131    0.0000 N   0  0  0  0  0  0  0  0  0
    3.9732    1.7999    0.0000 C   0  0  0  0  0  0  0  0  0
    4.3394    2.5391    0.0000 C   0  0  0  0  0  0  0  0  0
    4.0640    0.3738    0.0000 C   0  0  0  0  0  0  0  0  0
    4.5712   -0.2769    0.0000 C   0  0  0  0  0  0  0  0  0
    4.3786   -1.0791    0.0000 N   0  0  0  0  0  0  0  0  0
    3.6314   -1.4287    0.0000 C   0  0  0  0  0  0  0  0  0
    2.8921   -1.0625    0.0000 C   0  0  0  0  0  0  0  0  0
    2.7175   -0.2562    0.0000 C   0  0  0  0  0  0  0  0  0
    3.2391    0.3830    0.0000 C   0  0  0  0  0  0  0  0  0
    1.9320   -0.0042    0.0000 C   0  0  0  0  0  0  0  0  0
    1.3210   -0.5586    0.0000 C   0  0  0  0  0  0  0  0  0
    1.4955   -1.3649    0.0000 C   0  0  0  0  0  0  0  0  0
    2.2811   -1.6168    0.0000 C   0  0  0  0  0  0  0  0  0
    5.0821   -1.5102    0.0000 C   0  0  0  0  0  0  0  0  0
    5.7094   -0.9743    0.0000 C   0  0  0  0  0  0  0  0  0
    5.3936   -0.2121    0.0000 N   0  0  0  0  0  0  0  0  0
    4.2486    3.9652    0.0000 C   0  0  0  0  0  0  0  0  0
  1  2  1  0  0  0  0
  2  3  2  0  0  0  0
  2  4  1  0  0  0  0
  4  5  1  0  0  0  0
  4 26  2  0  0  0  0
  5  6  1  0  0  0  0
  6  7  1  0  0  0  0
  6 11  1  0  0  0  0
  7  8  1  0  0  0  0
  8  9  1  0  0  0  0
  9 10  1  0  0  0  0
  9 12  1  0  0  0  0
 10 11  1  0  0  0  0
 12 13  1  0  0  0  0
 12 18  2  0  0  0  0
 13 14  4  0  0  0  0
 13 25  4  0  0  0  0
 14 15  1  0  0  0  0
 14 23  4  0  0  0  0
 15 16  1  0  0  0  0
 16 17  4  0  0  0  0
 16 22  4  0  0  0  0
 17 18  1  0  0  0  0
 17 19  4  0  0  0  0
 19 20  4  0  0  0  0
 20 21  4  0  0  0  0
 21 22  4  0  0  0  0
 23 24  4  0  0  0  0
 24 25  4  0  0  0  0
M  END
>  <Name_Molregno>
689063

>  <5-HT2A>
6.7

>  <5-HT2C>
6.3

>  <HISTAMINE H1>
7.5

$$$$
689064
  Marvin  02231216192D 0   1.00000     0.00000     0

 27 31  0  0  0  0  0  0  0  0999 V2000
   -3.1469    3.9327    0.0000 O   0  0  0  0  0  0  0  0  0
   -2.6898    3.2459    0.0000 C   0  0  0  0  0  0  0  0  0
   -1.8665    3.2983    0.0000 O   0  0  0  0  0  0  0  0  0
   -3.0561    2.5066    0.0000 C   0  0  0  0  0  0  0  0  0
   -2.7923    1.7249    0.0000 C   0  0  0  0  0  0  0  0  0
   -3.5740    1.4612    0.0000 C   0  0  0  0  0  0  0  0  0
   -3.9403    0.7219    0.0000 N   0  0  0  0  0  0  0  0  0
   -3.4832    0.0351    0.0000 C   0  0  0  0  0  0  0  0  0
   -3.8494   -0.7041    0.0000 C   0  0  0  0  0  0  0  0  0
   -4.6727   -0.7566    0.0000 N   0  0  0  0  0  0  0  0  0
   -5.1298   -0.0698    0.0000 C   0  0  0  0  0  0  0  0  0
   -4.7636    0.6695    0.0000 C   0  0  0  0  0  0  0  0  0
   -5.0390   -1.4958    0.0000 C   0  0  0  0  0  0  0  0  0
   -4.5318   -2.1465    0.0000 C   0  0  0  0  0  0  0  0  0
   -4.7244   -2.9488    0.0000 N   0  0  0  0  0  0  0  0  0
   -5.4717   -3.2984    0.0000 C   0  0  0  0  0  0  0  0  0
   -6.2109   -2.9321    0.0000 C   0  0  0  0  0  0  0  0  0
   -6.3855   -2.1258    0.0000 C   0  0  0  0  0  0  0  0  0
   -5.8639   -1.4866    0.0000 C   0  0  0  0  0  0  0  0  0
   -7.1711   -1.8739    0.0000 C   0  0  0  0  0  0  0  0  0
   -7.7821   -2.4282    0.0000 C   0  0  0  0  0  0  0  0  0
   -7.6075   -3.2345    0.0000 C   0  0  0  0  0  0  0  0  0
   -6.8219   -3.4865    0.0000 C   0  0  0  0  0  0  0  0  0
   -4.0210   -3.3798    0.0000 C   0  0  0  0  0  0  0  0  0
   -3.3936   -2.8440    0.0000 C   0  0  0  0  0  0  0  0  0
   -3.7094   -2.0818    0.0000 N   0  0  0  0  0  0  0  0  0
   -3.8378    2.2429    0.0000 C   0  0  0  0  0  0  0  0  0
  1  2  1  0  0  0  0
  2  3  2  0  0  0  0
  2  4  1  0  0  0  0
  4  5  1  0  0  0  0
  4 27  1  0  0  0  0
  5  6  1  0  0  0  0
  6  7  1  0  0  0  0
  6 27  1  0  0  0  0
  7  8  1  0  0  0  0
  7 12  1  0  0  0  0
  8  9  1  0  0  0  0
  9 10  1  0  0  0  0
 10 11  1  0  0  0  0
 10 13  1  0  0  0  0
 11 12  1  0  0  0  0
 13 14  1  0  0  0  0
 13 19  2  0  0  0  0
 14 15  4  0  0  0  0
 14 26  4  0  0  0  0
 15 16  1  0  0  0  0
 15 24  4  0  0  0  0
 16 17  1  0  0  0  0
 17 18  4  0  0  0  0
 17 23  4  0  0  0  0
 18 19  1  0  0  0  0
 18 20  4  0  0  0  0
 20 21  4  0  0  0  0
 21 22  4  0  0  0  0
 22 23  4  0  0  0  0
 24 25  4  0  0  0  0
 25 26  4  0  0  0  0
M  END
>  <Name_Molregno>
689064

>  <5-HT2A>
6.1

>  <5-HT2C>
6.1

>  <HISTAMINE H1>
7.75

$$$$
689131
  Marvin  02231216192D 0   1.00000     0.00000     0

 29 33  0  0  0  0  0  0  0  0999 V2000
   -3.2401    4.0653    0.0000 O   0  0  0  0  0  0  0  0  0
   -2.7830    3.3785    0.0000 C   0  0  0  0  0  0  0  0  0
   -1.9597    3.4309    0.0000 O   0  0  0  0  0  0  0  0  0
   -3.1493    2.6392    0.0000 C   0  0  0  0  0  0  0  0  0
   -2.6922    1.9524    0.0000 C   0  0  0  0  0  0  0  0  0
   -3.0584    1.2132    0.0000 C   0  0  0  0  0  0  0  0  0
   -3.8817    1.1607    0.0000 C   0  0  0  0  0  0  0  0  0
   -4.2480    0.4215    0.0000 N   0  0  0  0  0  0  0  0  0
   -3.7909   -0.2653    0.0000 C   0  0  0  0  0  0  0  0  0
   -4.1571   -1.0046    0.0000 C   0  0  0  0  0  0  0  0  0
   -4.9805   -1.0571    0.0000 N   0  0  0  0  0  0  0  0  0
   -5.4376   -0.3703    0.0000 C   0  0  0  0  0  0  0  0  0
   -5.0713    0.3690    0.0000 C   0  0  0  0  0  0  0  0  0
   -5.3467   -1.7963    0.0000 C   0  0  0  0  0  0  0  0  0
   -4.8396   -2.4470    0.0000 C   0  0  0  0  0  0  0  0  0
   -5.0321   -3.2492    0.0000 N   0  0  0  0  0  0  0  0  0
   -5.7794   -3.5989    0.0000 C   0  0  0  0  0  0  0  0  0
   -6.5186   -3.2326    0.0000 C   0  0  0  0  0  0  0  0  0
   -6.6932   -2.4263    0.0000 C   0  0  0  0  0  0  0  0  0
   -6.1717   -1.7871    0.0000 C   0  0  0  0  0  0  0  0  0
   -7.4788   -2.1743    0.0000 C   0  0  0  0  0  0  0  0  0
   -8.0898   -2.7287    0.0000 C   0  0  0  0  0  0  0  0  0
   -7.9152   -3.5350    0.0000 C   0  0  0  0  0  0  0  0  0
   -7.1296   -3.7870    0.0000 C   0  0  0  0  0  0  0  0  0
   -4.3287   -3.6803    0.0000 C   0  0  0  0  0  0  0  0  0
   -3.7014   -3.1444    0.0000 C   0  0  0  0  0  0  0  0  0
   -4.0171   -2.3823    0.0000 N   0  0  0  0  0  0  0  0  0
   -4.3388    1.8475    0.0000 C   0  0  0  0  0  0  0  0  0
   -3.9726    2.5868    0.0000 C   0  0  0  0  0  0  0  0  0
  1  2  1  0  0  0  0
  2  3  2  0  0  0  0
  2  4  1  0  0  0  0
  4  5  1  0  0  0  0
  4 29  1  0  0  0  0
  5  6  1  0  0  0  0
  6  7  1  0  0  0  0
  7  8  1  0  0  0  0
  7 28  1  0  0  0  0
  8  9  1  0  0  0  0
  8 13  1  0  0  0  0
  9 10  1  0  0  0  0
 10 11  1  0  0  0  0
 11 12  1  0  0  0  0
 11 14  1  0  0  0  0
 12 13  1  0  0  0  0
 14 15  1  0  0  0  0
 14 20  2  0  0  0  0
 15 16  4  0  0  0  0
 15 27  4  0  0  0  0
 16 17  1  0  0  0  0
 16 25  4  0  0  0  0
 17 18  1  0  0  0  0
 18 19  4  0  0  0  0
 18 24  4  0  0  0  0
 19 20  1  0  0  0  0
 19 21  4  0  0  0  0
 21 22  4  0  0  0  0
 22 23  4  0  0  0  0
 23 24  4  0  0  0  0
 25 26  4  0  0  0  0
 26 27  4  0  0  0  0
 28 29  1  0  0  0  0
M  END
>  <Name_Molregno>
689131

>  <5-HT2A>
6.25

>  <5-HT2C>
5.7

>  <HISTAMINE H1>
7.05

$$$$
689132
  Marvin  02231216192D 0   1.00000     0.00000     0

 29 32  0  0  0  0  0  0  0  0999 V2000
    5.0357    3.5058    0.0000 O   0  0  0  0  0  0  0  0  0
    4.6694    2.7666    0.0000 C   0  0  0  0  0  0  0  0  0
    3.8461    2.7141    0.0000 O   0  0  0  0  0  0  0  0  0
    5.1265    2.0798    0.0000 C   0  0  0  0  0  0  0  0  0
    5.5836    1.3930    0.0000 C   0  0  0  0  0  0  0  0  0
    5.2174    0.6537    0.0000 N   0  0  0  0  0  0  0  0  0
    5.6745   -0.0331    0.0000 C   0  0  0  0  0  0  0  0  0
    5.3082   -0.7723    0.0000 C   0  0  0  0  0  0  0  0  0
    4.4849   -0.8248    0.0000 N   0  0  0  0  0  0  0  0  0
    4.0278   -0.1380    0.0000 C   0  0  0  0  0  0  0  0  0
    4.3940    0.6013    0.0000 C   0  0  0  0  0  0  0  0  0
    4.1186   -1.5640    0.0000 C   0  0  0  0  0  0  0  0  0
    4.6258   -2.2147    0.0000 C   0  0  0  0  0  0  0  0  0
    4.4332   -3.0170    0.0000 N   0  0  0  0  0  0  0  0  0
    3.6860   -3.3666    0.0000 C   0  0  0  0  0  0  0  0  0
    2.9467   -3.0003    0.0000 C   0  0  0  0  0  0  0  0  0
    2.7721   -2.1940    0.0000 C   0  0  0  0  0  0  0  0  0
    3.2937   -1.5548    0.0000 C   0  0  0  0  0  0  0  0  0
    1.9866   -1.9420    0.0000 C   0  0  0  0  0  0  0  0  0
    1.3756   -2.4964    0.0000 C   0  0  0  0  0  0  0  0  0
    1.5501   -3.3027    0.0000 C   0  0  0  0  0  0  0  0  0
    2.3357   -3.5547    0.0000 C   0  0  0  0  0  0  0  0  0
    5.1367   -3.4480    0.0000 C   0  0  0  0  0  0  0  0  0
    5.2014   -4.2704    0.0000 C   0  0  0  0  0  0  0  0  0
    5.7640   -2.9122    0.0000 C   0  0  0  0  0  0  0  0  0
    5.4482   -2.1500    0.0000 N   0  0  0  0  0  0  0  0  0
    6.5662   -3.1047    0.0000 C   0  0  0  0  0  0  0  0  0
    4.4397    1.6227    0.0000 C   0  0  0  0  0  0  0  0  0
    5.8133    2.5369    0.0000 C   0  0  0  0  0  0  0  0  0
  1  2  1  0  0  0  0
  2  3  2  0  0  0  0
  2  4  1  0  0  0  0
  4  5  1  0  0  0  0
  4 28  1  0  0  0  0
  4 29  1  0  0  0  0
  5  6  1  0  0  0  0
  6  7  1  0  0  0  0
  6 11  1  0  0  0  0
  7  8  1  0  0  0  0
  8  9  1  0  0  0  0
  9 10  1  0  0  0  0
  9 12  1  0  0  0  0
 10 11  1  0  0  0  0
 12 13  1  0  0  0  0
 12 18  2  0  0  0  0
 13 14  4  0  0  0  0
 13 26  4  0  0  0  0
 14 15  1  0  0  0  0
 14 23  4  0  0  0  0
 15 16  1  0  0  0  0
 16 17  4  0  0  0  0
 16 22  4  0  0  0  0
 17 18  1  0  0  0  0
 17 19  4  0  0  0  0
 19 20  4  0  0  0  0
 20 21  4  0  0  0  0
 21 22  4  0  0  0  0
 23 24  1  0  0  0  0
 23 25  4  0  0  0  0
 25 26  4  0  0  0  0
 25 27  1  0  0  0  0
M  END
>  <Name_Molregno>
689132

>  <5-HT2A>
6.4

>  <5-HT2C>
7.2

>  <HISTAMINE H1>
7.4

$$$$
689133
  Marvin  02231216192D 0   1.00000     0.00000     0

 28 31  0  0  0  0  0  0  0  0999 V2000
   -2.7257    4.1508    0.0000 O   0  0  0  0  0  0  0  0  0
   -3.0920    3.4116    0.0000 C   0  0  0  0  0  0  0  0  0
   -3.9153    3.3591    0.0000 O   0  0  0  0  0  0  0  0  0
   -2.6349    2.7248    0.0000 C   0  0  0  0  0  0  0  0  0
   -2.1778    2.0380    0.0000 C   0  0  0  0  0  0  0  0  0
   -2.5440    1.2987    0.0000 N   0  0  0  0  0  0  0  0  0
   -2.0870    0.6119    0.0000 C   0  0  0  0  0  0  0  0  0
   -2.4532   -0.1273    0.0000 C   0  0  0  0  0  0  0  0  0
   -3.2765   -0.1798    0.0000 N   0  0  0  0  0  0  0  0  0
   -3.7336    0.5070    0.0000 C   0  0  0  0  0  0  0  0  0
   -3.3674    1.2463    0.0000 C   0  0  0  0  0  0  0  0  0
   -3.6428   -0.9190    0.0000 C   0  0  0  0  0  0  0  0  0
   -3.1356   -1.5698    0.0000 C   0  0  0  0  0  0  0  0  0
   -2.3132   -1.5050    0.0000 N   0  0  0  0  0  0  0  0  0
   -1.9974   -2.2672    0.0000 C   0  0  0  0  0  0  0  0  0
   -2.6247   -2.8030    0.0000 C   0  0  0  0  0  0  0  0  0
   -3.3282   -2.3720    0.0000 N   0  0  0  0  0  0  0  0  0
   -4.0754   -2.7216    0.0000 C   0  0  0  0  0  0  0  0  0
   -4.8147   -2.3553    0.0000 C   0  0  0  0  0  0  0  0  0
   -4.9893   -1.5490    0.0000 C   0  0  0  0  0  0  0  0  0
   -4.4677   -0.9098    0.0000 C   0  0  0  0  0  0  0  0  0
   -5.7748   -1.2971    0.0000 C   0  0  0  0  0  0  0  0  0
   -6.3859   -1.8514    0.0000 C   0  0  0  0  0  0  0  0  0
   -6.2113   -2.6577    0.0000 C   0  0  0  0  0  0  0  0  0
   -5.4257   -2.9097    0.0000 C   0  0  0  0  0  0  0  0  0
   -1.1952   -2.4597    0.0000 C   0  0  0  0  0  0  0  0  0
   -3.3217    2.2677    0.0000 C   0  0  0  0  0  0  0  0  0
   -1.9481    3.1819    0.0000 C   0  0  0  0  0  0  0  0  0
  1  2  1  0  0  0  0
  2  3  2  0  0  0  0
  2  4  1  0  0  0  0
  4  5  1  0  0  0  0
  4 27  1  0  0  0  0
  4 28  1  0  0  0  0
  5  6  1  0  0  0  0
  6  7  1  0  0  0  0
  6 11  1  0  0  0  0
  7  8  1  0  0  0  0
  8  9  1  0  0  0  0
  9 10  1  0  0  0  0
  9 12  1  0  0  0  0
 10 11  1  0  0  0  0
 12 13  1  0  0  0  0
 12 21  2  0  0  0  0
 13 14  4  0  0  0  0
 13 17  4  0  0  0  0
 14 15  4  0  0  0  0
 15 16  4  0  0  0  0
 15 26  1  0  0  0  0
 16 17  4  0  0  0  0
 17 18  1  0  0  0  0
 18 19  1  0  0  0  0
 19 20  4  0  0  0  0
 19 25  4  0  0  0  0
 20 21  1  0  0  0  0
 20 22  4  0  0  0  0
 22 23  4  0  0  0  0
 23 24  4  0  0  0  0
 24 25  4  0  0  0  0
M  END
>  <Name_Molregno>
689133

>  <5-HT2A>
6.9

>  <5-HT2C>
7.5

>  <HISTAMINE H1>
7.3

$$$$
689134
  Marvin  02231216192D 0   1.00000     0.00000     0

 28 31  0  0  0  0  0  0  0  0999 V2000
    1.7769   -5.1638    0.0000 Cl  0  0  0  0  0  0  0  0  0
    0.9747   -4.9712    0.0000 C   0  0  0  0  0  0  0  0  0
    0.6590   -4.2090    0.0000 N   0  0  0  0  0  0  0  0  0
   -0.1635   -4.2738    0.0000 C   0  0  0  0  0  0  0  0  0
   -0.3560   -5.0760    0.0000 N   0  0  0  0  0  0  0  0  0
    0.3474   -5.5070    0.0000 C   0  0  0  0  0  0  0  0  0
   -1.1033   -5.4256    0.0000 C   0  0  0  0  0  0  0  0  0
   -1.8426   -5.0594    0.0000 C   0  0  0  0  0  0  0  0  0
   -2.0171   -4.2531    0.0000 C   0  0  0  0  0  0  0  0  0
   -1.4956   -3.6139    0.0000 C   0  0  0  0  0  0  0  0  0
   -0.6706   -3.6231    0.0000 C   0  0  0  0  0  0  0  0  0
   -0.3044   -2.8838    0.0000 N   0  0  0  0  0  0  0  0  0
   -0.7615   -2.1970    0.0000 C   0  0  0  0  0  0  0  0  0
   -0.3952   -1.4578    0.0000 C   0  0  0  0  0  0  0  0  0
    0.4281   -1.4053    0.0000 N   0  0  0  0  0  0  0  0  0
    0.8852   -2.0921    0.0000 C   0  0  0  0  0  0  0  0  0
    0.5189   -2.8314    0.0000 C   0  0  0  0  0  0  0  0  0
    0.7943   -0.6661    0.0000 C   0  0  0  0  0  0  0  0  0
    1.6177   -0.6136    0.0000 C   0  0  0  0  0  0  0  0  0
    2.4410   -0.5612    0.0000 C   0  0  0  0  0  0  0  0  0
    2.8072    0.1781    0.0000 O   0  0  0  0  0  0  0  0  0
    2.8981   -1.2480    0.0000 O   0  0  0  0  0  0  0  0  0
    1.5652    0.2097    0.0000 C   0  0  0  0  0  0  0  0  0
    1.6701   -1.4370    0.0000 C   0  0  0  0  0  0  0  0  0
   -2.8027   -4.0011    0.0000 C   0  0  0  0  0  0  0  0  0
   -3.4137   -4.5555    0.0000 C   0  0  0  0  0  0  0  0  0
   -3.2391   -5.3618    0.0000 C   0  0  0  0  0  0  0  0  0
   -2.4536   -5.6137    0.0000 C   0  0  0  0  0  0  0  0  0
  1  2  1  0  0  0  0
  2  3  4  0  0  0  0
  2  6  4  0  0  0  0
  3  4  4  0  0  0  0
  4  5  4  0  0  0  0
  4 11  1  0  0  0  0
  5  6  4  0  0  0  0
  5  7  1  0  0  0  0
  7  8  1  0  0  0  0
  8  9  4  0  0  0  0
  8 28  4  0  0  0  0
  9 10  1  0  0  0  0
  9 25  4  0  0  0  0
 10 11  2  0  0  0  0
 11 12  1  0  0  0  0
 12 13  1  0  0  0  0
 12 17  1  0  0  0  0
 13 14  1  0  0  0  0
 14 15  1  0  0  0  0
 15 16  1  0  0  0  0
 15 18  1  0  0  0  0
 16 17  1  0  0  0  0
 18 19  1  0  0  0  0
 19 20  1  0  0  0  0
 19 23  1  0  0  0  0
 19 24  1  0  0  0  0
 20 21  1  0  0  0  0
 20 22  2  0  0  0  0
 25 26  4  0  0  0  0
 26 27  4  0  0  0  0
 27 28  4  0  0  0  0
M  END
>  <Name_Molregno>
689134

>  <5-HT2A>
7.3

>  <5-HT2C>
6.3

>  <HISTAMINE H1>
7.1

$$$$
689202
  Marvin  02231216192D 0   1.00000     0.00000     0

 28 31  0  0  0  0  0  0  0  0999 V2000
    4.2748    4.3169    0.0000 Cl  0  0  0  0  0  0  0  0  0
    4.2100    3.4945    0.0000 C   0  0  0  0  0  0  0  0  0
    3.5066    3.0635    0.0000 N   0  0  0  0  0  0  0  0  0
    3.6991    2.2612    0.0000 C   0  0  0  0  0  0  0  0  0
    4.5216    2.1965    0.0000 N   0  0  0  0  0  0  0  0  0
    4.8373    2.9587    0.0000 C   0  0  0  0  0  0  0  0  0
    3.1920    1.6105    0.0000 C   0  0  0  0  0  0  0  0  0
    3.5582    0.8713    0.0000 N   0  0  0  0  0  0  0  0  0
    4.3816    0.8188    0.0000 C   0  0  0  0  0  0  0  0  0
    4.7478    0.0796    0.0000 C   0  0  0  0  0  0  0  0  0
    4.2907   -0.6072    0.0000 N   0  0  0  0  0  0  0  0  0
    3.4674   -0.5548    0.0000 C   0  0  0  0  0  0  0  0  0
    3.1012    0.1845    0.0000 C   0  0  0  0  0  0  0  0  0
    4.6570   -1.3465    0.0000 C   0  0  0  0  0  0  0  0  0
    4.1999   -2.0333    0.0000 C   0  0  0  0  0  0  0  0  0
    3.7428   -2.7201    0.0000 C   0  0  0  0  0  0  0  0  0
    4.1090   -3.4593    0.0000 O   0  0  0  0  0  0  0  0  0
    2.9195   -2.6676    0.0000 O   0  0  0  0  0  0  0  0  0
    4.8867   -2.4904    0.0000 C   0  0  0  0  0  0  0  0  0
    3.5131   -1.5762    0.0000 C   0  0  0  0  0  0  0  0  0
    2.3671    1.6013    0.0000 C   0  0  0  0  0  0  0  0  0
    1.8455    2.2405    0.0000 C   0  0  0  0  0  0  0  0  0
    2.0201    3.0468    0.0000 C   0  0  0  0  0  0  0  0  0
    2.7593    3.4131    0.0000 C   0  0  0  0  0  0  0  0  0
    1.4091    3.6012    0.0000 C   0  0  0  0  0  0  0  0  0
    0.6235    3.3492    0.0000 C   0  0  0  0  0  0  0  0  0
    0.4489    2.5429    0.0000 C   0  0  0  0  0  0  0  0  0
    1.0599    1.9885    0.0000 C   0  0  0  0  0  0  0  0  0
  1  2  1  0  0  0  0
  2  3  4  0  0  0  0
  2  6  4  0  0  0  0
  3  4  4  0  0  0  0
  3 24  1  0  0  0  0
  4  5  4  0  0  0  0
  4  7  1  0  0  0  0
  5  6  4  0  0  0  0
  7  8  1  0  0  0  0
  7 21  2  0  0  0  0
  8  9  1  0  0  0  0
  8 13  1  0  0  0  0
  9 10  1  0  0  0  0
 10 11  1  0  0  0  0
 11 12  1  0  0  0  0
 11 14  1  0  0  0  0
 12 13  1  0  0  0  0
 14 15  1  0  0  0  0
 15 16  1  0  0  0  0
 15 19  1  0  0  0  0
 15 20  1  0  0  0  0
 16 17  1  0  0  0  0
 16 18  2  0  0  0  0
 21 22  1  0  0  0  0
 22 23  4  0  0  0  0
 22 28  4  0  0  0  0
 23 24  1  0  0  0  0
 23 25  4  0  0  0  0
 25 26  4  0  0  0  0
 26 27  4  0  0  0  0
 27 28  4  0  0  0  0
M  END
>  <Name_Molregno>
689202

>  <5-HT2A>
7.2

>  <5-HT2C>
6.9

>  <HISTAMINE H1>
7.4

$$$$
689203
  Marvin  02231216192D 0   1.00000     0.00000     0

 28 31  0  0  0  0  0  0  0  0999 V2000
    1.7769   -5.1638    0.0000 F   0  0  0  0  0  0  0  0  0
    0.9747   -4.9712    0.0000 C   0  0  0  0  0  0  0  0  0
    0.6590   -4.2090    0.0000 N   0  0  0  0  0  0  0  0  0
   -0.1635   -4.2738    0.0000 C   0  0  0  0  0  0  0  0  0
   -0.3560   -5.0760    0.0000 N   0  0  0  0  0  0  0  0  0
    0.3474   -5.5070    0.0000 C   0  0  0  0  0  0  0  0  0
   -1.1033   -5.4256    0.0000 C   0  0  0  0  0  0  0  0  0
   -1.8426   -5.0594    0.0000 C   0  0  0  0  0  0  0  0  0
   -2.0171   -4.2531    0.0000 C   0  0  0  0  0  0  0  0  0
   -1.4956   -3.6139    0.0000 C   0  0  0  0  0  0  0  0  0
   -0.6706   -3.6231    0.0000 C   0  0  0  0  0  0  0  0  0
   -0.3044   -2.8838    0.0000 N   0  0  0  0  0  0  0  0  0
   -0.7615   -2.1970    0.0000 C   0  0  0  0  0  0  0  0  0
   -0.3952   -1.4578    0.0000 C   0  0  0  0  0  0  0  0  0
    0.4281   -1.4053    0.0000 N   0  0  0  0  0  0  0  0  0
    0.8852   -2.0921    0.0000 C   0  0  0  0  0  0  0  0  0
    0.5189   -2.8314    0.0000 C   0  0  0  0  0  0  0  0  0
    0.7943   -0.6661    0.0000 C   0  0  0  0  0  0  0  0  0
    1.6177   -0.6136    0.0000 C   0  0  0  0  0  0  0  0  0
    2.4410   -0.5612    0.0000 C   0  0  0  0  0  0  0  0  0
    2.8072    0.1781    0.0000 O   0  0  0  0  0  0  0  0  0
    2.8981   -1.2480    0.0000 O   0  0  0  0  0  0  0  0  0
    1.5652    0.2097    0.0000 C   0  0  0  0  0  0  0  0  0
    1.6701   -1.4370    0.0000 C   0  0  0  0  0  0  0  0  0
   -2.8027   -4.0011    0.0000 C   0  0  0  0  0  0  0  0  0
   -3.4137   -4.5555    0.0000 C   0  0  0  0  0  0  0  0  0
   -3.2391   -5.3618    0.0000 C   0  0  0  0  0  0  0  0  0
   -2.4536   -5.6137    0.0000 C   0  0  0  0  0  0  0  0  0
  1  2  1  0  0  0  0
  2  3  4  0  0  0  0
  2  6  4  0  0  0  0
  3  4  4  0  0  0  0
  4  5  4  0  0  0  0
  4 11  1  0  0  0  0
  5  6  4  0  0  0  0
  5  7  1  0  0  0  0
  7  8  1  0  0  0  0
  8  9  4  0  0  0  0
  8 28  4  0  0  0  0
  9 10  1  0  0  0  0
  9 25  4  0  0  0  0
 10 11  2  0  0  0  0
 11 12  1  0  0  0  0
 12 13  1  0  0  0  0
 12 17  1  0  0  0  0
 13 14  1  0  0  0  0
 14 15  1  0  0  0  0
 15 16  1  0  0  0  0
 15 18  1  0  0  0  0
 16 17  1  0  0  0  0
 18 19  1  0  0  0  0
 19 20  1  0  0  0  0
 19 23  1  0  0  0  0
 19 24  1  0  0  0  0
 20 21  1  0  0  0  0
 20 22  2  0  0  0  0
 25 26  4  0  0  0  0
 26 27  4  0  0  0  0
 27 28  4  0  0  0  0
M  END
>  <Name_Molregno>
689203

>  <5-HT2A>
7

>  <5-HT2C>
6.5

>  <HISTAMINE H1>
7.4

$$$$
689204
  Marvin  02231216192D 0   1.00000     0.00000     0

 29 32  0  0  0  0  0  0  0  0999 V2000
   -2.3072    3.9154    0.0000 O   0  0  0  0  0  0  0  0  0
   -1.5625    4.2705    0.0000 C   0  0  0  0  0  0  0  0  0
   -2.3719    3.0929    0.0000 C   0  0  0  0  0  0  0  0  0
   -3.0754    2.6619    0.0000 N   0  0  0  0  0  0  0  0  0
   -2.8828    1.8597    0.0000 C   0  0  0  0  0  0  0  0  0
   -2.0603    1.7949    0.0000 N   0  0  0  0  0  0  0  0  0
   -1.7446    2.5571    0.0000 C   0  0  0  0  0  0  0  0  0
   -3.3899    1.2090    0.0000 C   0  0  0  0  0  0  0  0  0
   -3.0237    0.4697    0.0000 N   0  0  0  0  0  0  0  0  0
   -2.2004    0.4173    0.0000 C   0  0  0  0  0  0  0  0  0
   -1.8341   -0.3220    0.0000 C   0  0  0  0  0  0  0  0  0
   -2.2912   -1.0088    0.0000 N   0  0  0  0  0  0  0  0  0
   -3.1145   -0.9563    0.0000 C   0  0  0  0  0  0  0  0  0
   -3.4808   -0.2171    0.0000 C   0  0  0  0  0  0  0  0  0
   -1.9250   -1.7480    0.0000 C   0  0  0  0  0  0  0  0  0
   -2.3821   -2.4348    0.0000 C   0  0  0  0  0  0  0  0  0
   -2.8392   -3.1216    0.0000 C   0  0  0  0  0  0  0  0  0
   -2.4729   -3.8609    0.0000 O   0  0  0  0  0  0  0  0  0
   -3.6625   -3.0692    0.0000 O   0  0  0  0  0  0  0  0  0
   -3.0689   -1.9777    0.0000 C   0  0  0  0  0  0  0  0  0
   -1.6953   -2.8919    0.0000 C   0  0  0  0  0  0  0  0  0
   -4.2149    1.1997    0.0000 C   0  0  0  0  0  0  0  0  0
   -4.7364    1.8390    0.0000 C   0  0  0  0  0  0  0  0  0
   -4.5619    2.6453    0.0000 C   0  0  0  0  0  0  0  0  0
   -3.8226    3.0115    0.0000 C   0  0  0  0  0  0  0  0  0
   -5.1729    3.1996    0.0000 C   0  0  0  0  0  0  0  0  0
   -5.9585    2.9477    0.0000 C   0  0  0  0  0  0  0  0  0
   -6.1330    2.1413    0.0000 C   0  0  0  0  0  0  0  0  0
   -5.5220    1.5870    0.0000 C   0  0  0  0  0  0  0  0  0
  1  2  1  0  0  0  0
  1  3  1  0  0  0  0
  3  4  4  0  0  0  0
  3  7  4  0  0  0  0
  4  5  4  0  0  0  0
  4 25  1  0  0  0  0
  5  6  4  0  0  0  0
  5  8  1  0  0  0  0
  6  7  4  0  0  0  0
  8  9  1  0  0  0  0
  8 22  2  0  0  0  0
  9 10  1  0  0  0  0
  9 14  1  0  0  0  0
 10 11  1  0  0  0  0
 11 12  1  0  0  0  0
 12 13  1  0  0  0  0
 12 15  1  0  0  0  0
 13 14  1  0  0  0  0
 15 16  1  0  0  0  0
 16 17  1  0  0  0  0
 16 20  1  0  0  0  0
 16 21  1  0  0  0  0
 17 18  1  0  0  0  0
 17 19  2  0  0  0  0
 22 23  1  0  0  0  0
 23 24  4  0  0  0  0
 23 29  4  0  0  0  0
 24 25  1  0  0  0  0
 24 26  4  0  0  0  0
 26 27  4  0  0  0  0
 27 28  4  0  0  0  0
 28 29  4  0  0  0  0
M  END
>  <Name_Molregno>
689204

>  <5-HT2A>
6.6

>  <5-HT2C>
6.3

>  <HISTAMINE H1>
6.9

$$$$
690483
  Marvin  02231216192D 0   1.00000     0.00000     0

 23 26  0  0  1  0  0  0  0  0999 V2000
    1.8719    3.2467    0.0000 S   0  0  0  0  0  0  0  0  0
    2.6965    3.2210    0.0000 C   0  0  0  0  0  0  0  0  0
    3.0865    2.4939    0.0000 C   0  0  0  0  0  0  0  0  0
    2.6518    1.7927    0.0000 C   0  0  0  0  0  0  0  0  0
    3.1845    1.1627    0.0000 N   0  0  0  0  0  0  0  0  0
    3.9483    1.4745    0.0000 O   0  0  0  0  0  0  0  0  0
    3.8877    2.2973    0.0000 C   0  0  0  0  0  0  0  0  0
    2.9878    0.3615    0.0000 C   0  0  0  0  0  0  0  0  0
    2.1956    0.1311    0.0000 O   0  0  0  0  0  0  0  0  0
    3.5834   -0.2095    0.0000 N   0  0  0  0  0  0  0  0  0
    3.3867   -1.0107    0.0000 C   0  0  0  0  0  0  0  0  0
    3.9823   -1.5816    0.0000 C   0  0  0  0  0  0  0  0  0
    3.7856   -2.3828    0.0000 C   0  0  0  0  0  0  0  0  0
    2.9934   -2.6131    0.0000 C   0  0  0  0  0  0  0  0  0
    2.3979   -2.0422    0.0000 C   0  0  0  0  0  0  0  0  0
    2.5945   -1.2410    0.0000 C   0  0  0  0  0  0  0  0  0
    1.8272    1.8185    0.0000 C   0  0  0  0  0  0  0  0  0
    1.3926    1.1172    0.0000 C   0  0  0  0  0  0  0  0  0
    0.5680    1.1430    0.0000 C   0  0  0  0  0  0  0  0  0
    0.1334    0.4417    0.0000 F   0  0  0  0  0  0  0  0  0
    0.1781    1.8700    0.0000 C   0  0  0  0  0  0  0  0  0
    0.6127    2.5712    0.0000 C   0  0  0  0  0  0  0  0  0
    1.4373    2.5455    0.0000 C   0  0  0  0  0  0  0  0  0
  1  2  1  0  0  0  0
  1 23  1  0  0  0  0
  2  3  1  0  0  0  0
  3  4  1  0  0  0  0
  3  7  1  0  0  0  0
  4  5  1  0  0  0  0
  4 17  1  0  0  0  0
  5  6  1  0  0  0  0
  5  8  1  0  0  0  0
  6  7  1  0  0  0  0
  8  9  2  0  0  0  0
  8 10  1  0  0  0  0
 10 11  1  0  0  0  0
 11 12  4  0  0  0  0
 11 16  4  0  0  0  0
 12 13  4  0  0  0  0
 13 14  4  0  0  0  0
 14 15  4  0  0  0  0
 15 16  4  0  0  0  0
 17 18  4  0  0  0  0
 17 23  4  0  0  0  0
 18 19  4  0  0  0  0
 19 20  1  0  0  0  0
 19 21  4  0  0  0  0
 21 22  4  0  0  0  0
 22 23  4  0  0  0  0
M  END
>  <Name_Molregno>
690483

>  <5-HT2A>
5

>  <5-HT2C>
5.15

>  <Dopamine transporter>
5

>  <Norepinephrine transporter>
5

>  <Serotonin transporter>
5

$$$$
690484
  Marvin  02231216192D 0   1.00000     0.00000     0

 20 22  0  0  1  0  0  0  0  0999 V2000
    1.5364    2.6350    0.0000 S   0  0  0  0  0  0  0  0  0
    2.3610    2.6092    0.0000 C   0  0  0  0  0  0  0  0  0
    2.7510    1.8822    0.0000 C   0  0  0  0  0  0  0  0  0
    2.3164    1.1810    0.0000 C   0  0  0  0  0  0  0  0  0
    2.8490    0.5510    0.0000 N   0  0  0  0  0  0  0  0  0
    3.6128    0.8628    0.0000 O   0  0  0  0  0  0  0  0  0
    3.5522    1.6856    0.0000 C   0  0  0  0  0  0  0  0  0
    2.6524   -0.2503    0.0000 C   0  0  0  0  0  0  0  0  0
    1.8602   -0.4806    0.0000 O   0  0  0  0  0  0  0  0  0
    3.2479   -0.8212    0.0000 N   0  0  0  0  0  0  0  0  0
    3.0513   -1.6224    0.0000 C   0  0  0  0  0  0  0  0  0
    3.6468   -2.1933    0.0000 C   0  0  0  0  0  0  0  0  0
    2.2591   -1.8527    0.0000 C   0  0  0  0  0  0  0  0  0
    1.4918    1.2068    0.0000 C   0  0  0  0  0  0  0  0  0
    1.0572    0.5055    0.0000 C   0  0  0  0  0  0  0  0  0
    0.2326    0.5313    0.0000 C   0  0  0  0  0  0  0  0  0
   -0.2020   -0.1700    0.0000 F   0  0  0  0  0  0  0  0  0
   -0.1574    1.2583    0.0000 C   0  0  0  0  0  0  0  0  0
    0.2772    1.9595    0.0000 C   0  0  0  0  0  0  0  0  0
    1.1018    1.9338    0.0000 C   0  0  0  0  0  0  0  0  0
  1  2  1  0  0  0  0
  1 20  1  0  0  0  0
  2  3  1  0  0  0  0
  3  4  1  0  0  0  0
  3  7  1  0  0  0  0
  4  5  1  0  0  0  0
  4 14  1  0  0  0  0
  5  6  1  0  0  0  0
  5  8  1  0  0  0  0
  6  7  1  0  0  0  0
  8  9  2  0  0  0  0
  8 10  1  0  0  0  0
 10 11  1  0  0  0  0
 11 12  1  0  0  0  0
 11 13  1  0  0  0  0
 14 15  4  0  0  0  0
 14 20  4  0  0  0  0
 15 16  4  0  0  0  0
 16 17  1  0  0  0  0
 16 18  4  0  0  0  0
 18 19  4  0  0  0  0
 19 20  4  0  0  0  0
M  END
>  <Name_Molregno>
690484

>  <5-HT2A>
5

>  <5-HT2C>
5

$$$$
690485
  Marvin  02231216192D 0   1.00000     0.00000     0

 20 22  0  0  1  0  0  0  0  0999 V2000
   -0.1285    0.6728    0.0000 S   0  0  0  0  0  0  0  0  0
    0.1264    1.4574    0.0000 C   0  0  0  0  0  0  0  0  0
    0.9334    1.6289    0.0000 C   0  0  0  0  0  0  0  0  0
    1.4854    1.0158    0.0000 C   0  0  0  0  0  0  0  0  0
    2.2391    1.3514    0.0000 N   0  0  0  0  0  0  0  0  0
    2.1529    2.1719    0.0000 O   0  0  0  0  0  0  0  0  0
    1.3459    2.3434    0.0000 C   0  0  0  0  0  0  0  0  0
    2.9536    0.9389    0.0000 C   0  0  0  0  0  0  0  0  0
    2.9536    0.1139    0.0000 O   0  0  0  0  0  0  0  0  0
    3.6680    1.3514    0.0000 N   0  0  0  0  0  0  0  0  0
    4.3825    0.9389    0.0000 C   0  0  0  0  0  0  0  0  0
    5.0970    1.3514    0.0000 C   0  0  0  0  0  0  0  0  0
    5.8115    0.9389    0.0000 C   0  0  0  0  0  0  0  0  0
    1.2305    0.2312    0.0000 C   0  0  0  0  0  0  0  0  0
    1.7825   -0.3819    0.0000 C   0  0  0  0  0  0  0  0  0
    1.5276   -1.1665    0.0000 C   0  0  0  0  0  0  0  0  0
    2.0796   -1.7796    0.0000 F   0  0  0  0  0  0  0  0  0
    0.7206   -1.3380    0.0000 C   0  0  0  0  0  0  0  0  0
    0.1686   -0.7249    0.0000 C   0  0  0  0  0  0  0  0  0
    0.4235    0.0597    0.0000 C   0  0  0  0  0  0  0  0  0
  1  2  1  0  0  0  0
  1 20  1  0  0  0  0
  2  3  1  0  0  0  0
  3  4  1  0  0  0  0
  3  7  1  0  0  0  0
  4  5  1  0  0  0  0
  4 14  1  0  0  0  0
  5  6  1  0  0  0  0
  5  8  1  0  0  0  0
  6  7  1  0  0  0  0
  8  9  2  0  0  0  0
  8 10  1  0  0  0  0
 10 11  1  0  0  0  0
 11 12  1  0  0  0  0
 12 13  1  0  0  0  0
 14 15  4  0  0  0  0
 14 20  4  0  0  0  0
 15 16  4  0  0  0  0
 16 17  1  0  0  0  0
 16 18  4  0  0  0  0
 18 19  4  0  0  0  0
 19 20  4  0  0  0  0
M  END
>  <Name_Molregno>
690485

>  <5-HT2A>
5

>  <5-HT2C>
5

$$$$
690487
  Marvin  02231216192D 0   1.00000     0.00000     0

 21 23  0  0  1  0  0  0  0  0999 V2000
    1.9847    2.4661    0.0000 S   0  0  0  0  0  0  0  0  0
    2.7693    2.2111    0.0000 C   0  0  0  0  0  0  0  0  0
    2.9408    1.4042    0.0000 C   0  0  0  0  0  0  0  0  0
    2.3277    0.8521    0.0000 C   0  0  0  0  0  0  0  0  0
    2.6633    0.0984    0.0000 N   0  0  0  0  0  0  0  0  0
    3.4837    0.1847    0.0000 O   0  0  0  0  0  0  0  0  0
    3.6553    0.9917    0.0000 C   0  0  0  0  0  0  0  0  0
    2.2508   -0.6160    0.0000 C   0  0  0  0  0  0  0  0  0
    1.4258   -0.6160    0.0000 O   0  0  0  0  0  0  0  0  0
    2.6633   -1.3305    0.0000 N   0  0  0  0  0  0  0  0  0
    3.4883   -1.3305    0.0000 C   0  0  0  0  0  0  0  0  0
    3.9008   -0.6160    0.0000 C   0  0  0  0  0  0  0  0  0
    4.7258   -0.6160    0.0000 C   0  0  0  0  0  0  0  0  0
    5.1383    0.0984    0.0000 C   0  0  0  0  0  0  0  0  0
    1.5431    1.1071    0.0000 C   0  0  0  0  0  0  0  0  0
    0.9300    0.5550    0.0000 C   0  0  0  0  0  0  0  0  0
    0.1454    0.8100    0.0000 C   0  0  0  0  0  0  0  0  0
   -0.4677    0.2579    0.0000 F   0  0  0  0  0  0  0  0  0
   -0.0262    1.6169    0.0000 C   0  0  0  0  0  0  0  0  0
    0.5869    2.1690    0.0000 C   0  0  0  0  0  0  0  0  0
    1.3716    1.9140    0.0000 C   0  0  0  0  0  0  0  0  0
  1  2  1  0  0  0  0
  1 21  1  0  0  0  0
  2  3  1  0  0  0  0
  3  4  1  0  0  0  0
  3  7  1  0  0  0  0
  4  5  1  0  0  0  0
  4 15  1  0  0  0  0
  5  6  1  0  0  0  0
  5  8  1  0  0  0  0
  6  7  1  0  0  0  0
  8  9  2  0  0  0  0
  8 10  1  0  0  0  0
 10 11  1  0  0  0  0
 11 12  1  0  0  0  0
 12 13  1  0  0  0  0
 13 14  1  0  0  0  0
 15 16  4  0  0  0  0
 15 21  4  0  0  0  0
 16 17  4  0  0  0  0
 17 18  1  0  0  0  0
 17 19  4  0  0  0  0
 19 20  4  0  0  0  0
 20 21  4  0  0  0  0
M  END
>  <Name_Molregno>
690487

>  <5-HT2A>
5

>  <5-HT2C>
5

$$$$
690488
  Marvin  02231216192D 0   1.00000     0.00000     0

 22 25  0  0  1  0  0  0  0  0999 V2000
    1.8088   -1.8954    0.0000 O   0  0  0  0  0  0  0  0  0
    2.6334   -1.8696    0.0000 C   0  0  0  0  0  0  0  0  0
    3.0234   -1.1426    0.0000 C   0  0  0  0  0  0  0  0  0
    2.5888   -0.4414    0.0000 C   0  0  0  0  0  0  0  0  0
    3.1214    0.1887    0.0000 N   0  0  0  0  0  0  0  0  0
    3.8852   -0.1232    0.0000 O   0  0  0  0  0  0  0  0  0
    3.8246   -0.9460    0.0000 C   0  0  0  0  0  0  0  0  0
    2.9247    0.9899    0.0000 C   0  0  0  0  0  0  0  0  0
    2.1325    1.2202    0.0000 O   0  0  0  0  0  0  0  0  0
    3.5203    1.5608    0.0000 N   0  0  0  0  0  0  0  0  0
    3.3236    2.3620    0.0000 C   0  0  0  0  0  0  0  0  0
    2.5314    2.5923    0.0000 C   0  0  0  0  0  0  0  0  0
    2.3348    3.3935    0.0000 C   0  0  0  0  0  0  0  0  0
    2.9304    3.9644    0.0000 C   0  0  0  0  0  0  0  0  0
    3.7226    3.7341    0.0000 C   0  0  0  0  0  0  0  0  0
    3.9192    2.9329    0.0000 C   0  0  0  0  0  0  0  0  0
    1.7642   -0.4671    0.0000 C   0  0  0  0  0  0  0  0  0
    1.3742   -1.1941    0.0000 C   0  0  0  0  0  0  0  0  0
    0.5496   -1.2199    0.0000 C   0  0  0  0  0  0  0  0  0
    0.1150   -0.5187    0.0000 C   0  0  0  0  0  0  0  0  0
    0.5050    0.2083    0.0000 C   0  0  0  0  0  0  0  0  0
    1.3295    0.2341    0.0000 C   0  0  0  0  0  0  0  0  0
  1  2  1  0  0  0  0
  1 18  1  0  0  0  0
  2  3  1  0  0  0  0
  3  4  1  0  0  0  0
  3  7  1  0  0  0  0
  4  5  1  0  0  0  0
  4 17  1  0  0  0  0
  5  6  1  0  0  0  0
  5  8  1  0  0  0  0
  6  7  1  0  0  0  0
  8  9  2  0  0  0  0
  8 10  1  0  0  0  0
 10 11  1  0  0  0  0
 11 12  1  0  0  0  0
 11 16  1  0  0  0  0
 12 13  1  0  0  0  0
 13 14  1  0  0  0  0
 14 15  1  0  0  0  0
 15 16  1  0  0  0  0
 17 18  4  0  0  0  0
 17 22  4  0  0  0  0
 18 19  4  0  0  0  0
 19 20  4  0  0  0  0
 20 21  4  0  0  0  0
 21 22  4  0  0  0  0
M  END
>  <Name_Molregno>
690488

>  <5-HT2A>
5

>  <5-HT2C>
5

$$$$
690554
  Marvin  02231216192D 0   1.00000     0.00000     0

 19 21  0  0  1  0  0  0  0  0999 V2000
    1.4395   -1.5649    0.0000 O   0  0  0  0  0  0  0  0  0
    2.2641   -1.5391    0.0000 C   0  0  0  0  0  0  0  0  0
    2.6541   -0.8121    0.0000 C   0  0  0  0  0  0  0  0  0
    2.2195   -0.1109    0.0000 C   0  0  0  0  0  0  0  0  0
    2.7521    0.5192    0.0000 N   0  0  0  0  0  0  0  0  0
    3.5159    0.2073    0.0000 O   0  0  0  0  0  0  0  0  0
    3.4553   -0.6155    0.0000 C   0  0  0  0  0  0  0  0  0
    2.5555    1.3204    0.0000 C   0  0  0  0  0  0  0  0  0
    1.7633    1.5507    0.0000 O   0  0  0  0  0  0  0  0  0
    3.1510    1.8913    0.0000 N   0  0  0  0  0  0  0  0  0
    2.9544    2.6925    0.0000 C   0  0  0  0  0  0  0  0  0
    3.5500    3.2634    0.0000 C   0  0  0  0  0  0  0  0  0
    2.1622    2.9228    0.0000 C   0  0  0  0  0  0  0  0  0
    1.3949   -0.1366    0.0000 C   0  0  0  0  0  0  0  0  0
    1.0049   -0.8636    0.0000 C   0  0  0  0  0  0  0  0  0
    0.1803   -0.8894    0.0000 C   0  0  0  0  0  0  0  0  0
   -0.2543   -0.1882    0.0000 C   0  0  0  0  0  0  0  0  0
    0.1357    0.5388    0.0000 C   0  0  0  0  0  0  0  0  0
    0.9603    0.5646    0.0000 C   0  0  0  0  0  0  0  0  0
  1  2  1  0  0  0  0
  1 15  1  0  0  0  0
  2  3  1  0  0  0  0
  3  4  1  0  0  0  0
  3  7  1  0  0  0  0
  4  5  1  0  0  0  0
  4 14  1  0  0  0  0
  5  6  1  0  0  0  0
  5  8  1  0  0  0  0
  6  7  1  0  0  0  0
  8  9  2  0  0  0  0
  8 10  1  0  0  0  0
 10 11  1  0  0  0  0
 11 12  1  0  0  0  0
 11 13  1  0  0  0  0
 14 15  4  0  0  0  0
 14 19  4  0  0  0  0
 15 16  4  0  0  0  0
 16 17  4  0  0  0  0
 17 18  4  0  0  0  0
 18 19  4  0  0  0  0
M  END
>  <Name_Molregno>
690554

>  <5-HT2A>
5

>  <5-HT2C>
5

$$$$
690555
  Marvin  02231216192D 0   1.00000     0.00000     0

 19 21  0  0  1  0  0  0  0  0999 V2000
   -0.1009    0.4405    0.0000 O   0  0  0  0  0  0  0  0  0
    0.1541   -0.3441    0.0000 C   0  0  0  0  0  0  0  0  0
    0.9610   -0.5157    0.0000 C   0  0  0  0  0  0  0  0  0
    1.5131    0.0974    0.0000 C   0  0  0  0  0  0  0  0  0
    2.2667   -0.2381    0.0000 N   0  0  0  0  0  0  0  0  0
    2.1805   -1.0586    0.0000 O   0  0  0  0  0  0  0  0  0
    1.3735   -1.2301    0.0000 C   0  0  0  0  0  0  0  0  0
    2.9812    0.1744    0.0000 C   0  0  0  0  0  0  0  0  0
    2.9812    0.9994    0.0000 O   0  0  0  0  0  0  0  0  0
    3.6957   -0.2381    0.0000 N   0  0  0  0  0  0  0  0  0
    4.4102    0.1744    0.0000 C   0  0  0  0  0  0  0  0  0
    5.1246   -0.2381    0.0000 C   0  0  0  0  0  0  0  0  0
    5.8391    0.1744    0.0000 C   0  0  0  0  0  0  0  0  0
    1.2581    0.8821    0.0000 C   0  0  0  0  0  0  0  0  0
    0.4512    1.0536    0.0000 C   0  0  0  0  0  0  0  0  0
    0.1962    1.8382    0.0000 C   0  0  0  0  0  0  0  0  0
    0.7482    2.4513    0.0000 C   0  0  0  0  0  0  0  0  0
    1.5552    2.2798    0.0000 C   0  0  0  0  0  0  0  0  0
    1.8102    1.4951    0.0000 C   0  0  0  0  0  0  0  0  0
  1  2  1  0  0  0  0
  1 15  1  0  0  0  0
  2  3  1  0  0  0  0
  3  4  1  0  0  0  0
  3  7  1  0  0  0  0
  4  5  1  0  0  0  0
  4 14  1  0  0  0  0
  5  6  1  0  0  0  0
  5  8  1  0  0  0  0
  6  7  1  0  0  0  0
  8  9  2  0  0  0  0
  8 10  1  0  0  0  0
 10 11  1  0  0  0  0
 11 12  1  0  0  0  0
 12 13  1  0  0  0  0
 14 15  4  0  0  0  0
 14 19  4  0  0  0  0
 15 16  4  0  0  0  0
 16 17  4  0  0  0  0
 17 18  4  0  0  0  0
 18 19  4  0  0  0  0
M  END
>  <Name_Molregno>
690555

>  <5-HT2A>
5

>  <5-HT2C>
5

$$$$
690557
  Marvin  02231216192D 0   1.00000     0.00000     0

 20 22  0  0  1  0  0  0  0  0999 V2000
    1.5109   -1.6731    0.0000 O   0  0  0  0  0  0  0  0  0
    2.3355   -1.6473    0.0000 C   0  0  0  0  0  0  0  0  0
    2.7255   -0.9203    0.0000 C   0  0  0  0  0  0  0  0  0
    2.2908   -0.2191    0.0000 C   0  0  0  0  0  0  0  0  0
    2.8235    0.4110    0.0000 N   0  0  0  0  0  0  0  0  0
    3.5872    0.0991    0.0000 O   0  0  0  0  0  0  0  0  0
    3.5267   -0.7237    0.0000 C   0  0  0  0  0  0  0  0  0
    2.6268    1.2122    0.0000 C   0  0  0  0  0  0  0  0  0
    1.8346    1.4425    0.0000 O   0  0  0  0  0  0  0  0  0
    3.2224    1.7831    0.0000 N   0  0  0  0  0  0  0  0  0
    3.0257    2.5843    0.0000 C   0  0  0  0  0  0  0  0  0
    2.8291    3.3855    0.0000 C   0  0  0  0  0  0  0  0  0
    2.2245    2.3877    0.0000 C   0  0  0  0  0  0  0  0  0
    3.8270    2.7809    0.0000 C   0  0  0  0  0  0  0  0  0
    1.4662   -0.2448    0.0000 C   0  0  0  0  0  0  0  0  0
    1.0763   -0.9718    0.0000 C   0  0  0  0  0  0  0  0  0
    0.2517   -0.9976    0.0000 C   0  0  0  0  0  0  0  0  0
   -0.1829   -0.2964    0.0000 C   0  0  0  0  0  0  0  0  0
    0.2070    0.4306    0.0000 C   0  0  0  0  0  0  0  0  0
    1.0316    0.4564    0.0000 C   0  0  0  0  0  0  0  0  0
  1  2  1  0  0  0  0
  1 16  1  0  0  0  0
  2  3  1  0  0  0  0
  3  4  1  0  0  0  0
  3  7  1  0  0  0  0
  4  5  1  0  0  0  0
  4 15  1  0  0  0  0
  5  6  1  0  0  0  0
  5  8  1  0  0  0  0
  6  7  1  0  0  0  0
  8  9  2  0  0  0  0
  8 10  1  0  0  0  0
 10 11  1  0  0  0  0
 11 12  1  0  0  0  0
 11 13  1  0  0  0  0
 11 14  1  0  0  0  0
 15 16  4  0  0  0  0
 15 20  4  0  0  0  0
 16 17  4  0  0  0  0
 17 18  4  0  0  0  0
 18 19  4  0  0  0  0
 19 20  4  0  0  0  0
M  END
>  <Name_Molregno>
690557

>  <5-HT2A>
5

>  <5-HT2C>
5

$$$$
690558
  Marvin  02231216192D 0   1.00000     0.00000     0

 20 22  0  0  1  0  0  0  0  0999 V2000
   -0.1056    0.4922    0.0000 O   0  0  0  0  0  0  0  0  0
    0.1493   -0.2925    0.0000 C   0  0  0  0  0  0  0  0  0
    0.9563   -0.4640    0.0000 C   0  0  0  0  0  0  0  0  0
    1.5083    0.1491    0.0000 C   0  0  0  0  0  0  0  0  0
    2.2620   -0.1864    0.0000 N   0  0  0  0  0  0  0  0  0
    2.1758   -1.0069    0.0000 O   0  0  0  0  0  0  0  0  0
    1.3688   -1.1785    0.0000 C   0  0  0  0  0  0  0  0  0
    2.9765    0.2261    0.0000 C   0  0  0  0  0  0  0  0  0
    2.9765    1.0511    0.0000 O   0  0  0  0  0  0  0  0  0
    3.6909   -0.1864    0.0000 N   0  0  0  0  0  0  0  0  0
    4.4054    0.2261    0.0000 C   0  0  0  0  0  0  0  0  0
    5.1199   -0.1864    0.0000 C   0  0  0  0  0  0  0  0  0
    5.8343    0.2261    0.0000 C   0  0  0  0  0  0  0  0  0
    6.5488   -0.1864    0.0000 C   0  0  0  0  0  0  0  0  0
    1.2534    0.9337    0.0000 C   0  0  0  0  0  0  0  0  0
    0.4464    1.1053    0.0000 C   0  0  0  0  0  0  0  0  0
    0.1915    1.8899    0.0000 C   0  0  0  0  0  0  0  0  0
    0.7435    2.5030    0.0000 C   0  0  0  0  0  0  0  0  0
    1.5505    2.3315    0.0000 C   0  0  0  0  0  0  0  0  0
    1.8054    1.5468    0.0000 C   0  0  0  0  0  0  0  0  0
  1  2  1  0  0  0  0
  1 16  1  0  0  0  0
  2  3  1  0  0  0  0
  3  4  1  0  0  0  0
  3  7  1  0  0  0  0
  4  5  1  0  0  0  0
  4 15  1  0  0  0  0
  5  6  1  0  0  0  0
  5  8  1  0  0  0  0
  6  7  1  0  0  0  0
  8  9  2  0  0  0  0
  8 10  1  0  0  0  0
 10 11  1  0  0  0  0
 11 12  1  0  0  0  0
 12 13  1  0  0  0  0
 13 14  1  0  0  0  0
 15 16  4  0  0  0  0
 15 20  4  0  0  0  0
 16 17  4  0  0  0  0
 17 18  4  0  0  0  0
 18 19  4  0  0  0  0
 19 20  4  0  0  0  0
M  END
>  <Name_Molregno>
690558

>  <5-HT2A>
5

>  <5-HT2C>
5

$$$$
690559
  Marvin  02231216192D 0   1.00000     0.00000     0

 23 26  0  0  1  0  0  0  0  0999 V2000
    1.8392   -2.0537    0.0000 O   0  0  0  0  0  0  0  0  0
    2.6638   -2.0279    0.0000 C   0  0  0  0  0  0  0  0  0
    3.0538   -1.3009    0.0000 C   0  0  0  0  0  0  0  0  0
    2.6192   -0.5997    0.0000 C   0  0  0  0  0  0  0  0  0
    3.1518    0.0304    0.0000 N   0  0  0  0  0  0  0  0  0
    3.9156   -0.2815    0.0000 O   0  0  0  0  0  0  0  0  0
    3.8550   -1.1043    0.0000 C   0  0  0  0  0  0  0  0  0
    2.9551    0.8316    0.0000 C   0  0  0  0  0  0  0  0  0
    2.1629    1.0619    0.0000 O   0  0  0  0  0  0  0  0  0
    3.5507    1.4025    0.0000 N   0  0  0  0  0  0  0  0  0
    3.3540    2.2037    0.0000 C   0  0  0  0  0  0  0  0  0
    2.5618    2.4340    0.0000 C   0  0  0  0  0  0  0  0  0
    2.3652    3.2353    0.0000 C   0  0  0  0  0  0  0  0  0
    2.9608    3.8062    0.0000 C   0  0  0  0  0  0  0  0  0
    3.7530    3.5758    0.0000 C   0  0  0  0  0  0  0  0  0
    3.9496    2.7746    0.0000 C   0  0  0  0  0  0  0  0  0
    4.7418    2.5443    0.0000 C   0  0  0  0  0  0  0  0  0
    1.7946   -0.6254    0.0000 C   0  0  0  0  0  0  0  0  0
    1.4046   -1.3524    0.0000 C   0  0  0  0  0  0  0  0  0
    0.5800   -1.3782    0.0000 C   0  0  0  0  0  0  0  0  0
    0.1454   -0.6770    0.0000 C   0  0  0  0  0  0  0  0  0
    0.5354    0.0500    0.0000 C   0  0  0  0  0  0  0  0  0
    1.3600    0.0758    0.0000 C   0  0  0  0  0  0  0  0  0
  1  2  1  0  0  0  0
  1 19  1  0  0  0  0
  2  3  1  0  0  0  0
  3  4  1  0  0  0  0
  3  7  1  0  0  0  0
  4  5  1  0  0  0  0
  4 18  1  0  0  0  0
  5  6  1  0  0  0  0
  5  8  1  0  0  0  0
  6  7  1  0  0  0  0
  8  9  2  0  0  0  0
  8 10  1  0  0  0  0
 10 11  1  0  0  0  0
 11 12  4  0  0  0  0
 11 16  4  0  0  0  0
 12 13  4  0  0  0  0
 13 14  4  0  0  0  0
 14 15  4  0  0  0  0
 15 16  4  0  0  0  0
 16 17  1  0  0  0  0
 18 19  4  0  0  0  0
 18 23  4  0  0  0  0
 19 20  4  0  0  0  0
 20 21  4  0  0  0  0
 21 22  4  0  0  0  0
 22 23  4  0  0  0  0
M  END
>  <Name_Molregno>
690559

>  <5-HT2A>
5

>  <5-HT2C>
5

$$$$
5-HT-N-ACETYL
  Marvin  02231216192D 0   1.00000     0.00000     0

 19 20  0  0  1  0  0  0  0  0999 V2000
    0.4065   -1.6301    0.0000 Cl  0  0  0  0  0  0  0  0  0
    1.1210   -1.2176    0.0000 C   0  0  0  0  0  0  0  0  0
    1.1210   -0.3926    0.0000 C   0  0  0  0  0  0  0  0  0
    1.8355    0.0199    0.0000 C   0  0  0  0  0  0  0  0  0
    2.5499   -0.3926    0.0000 C   0  0  0  0  0  0  0  0  0
    2.5499   -1.2176    0.0000 C   0  0  0  0  0  0  0  0  0
    1.8355   -1.6301    0.0000 C   0  0  0  0  0  0  0  0  0
    3.2644    0.0199    0.0000 C   0  0  0  0  0  0  0  0  0
    3.9789   -0.3926    0.0000 C   0  0  0  0  0  0  0  0  0
    4.6934    0.0199    0.0000 C   0  0  0  0  0  0  0  0  0
    5.4078   -0.3926    0.0000 N   0  0  0  0  0  0  0  0  0
    6.1223    0.0199    0.0000 C   0  0  0  0  0  0  0  0  0
    5.4078   -1.2176    0.0000 C   0  0  0  0  0  0  0  0  0
    3.2644    0.8449    0.0000 C   0  0  0  0  0  0  0  0  0
    2.5499    1.2574    0.0000 N   0  0  0  0  0  0  0  0  0
    2.5499    2.0824    0.0000 C   0  0  0  0  0  0  0  0  0
    3.2644    2.4949    0.0000 C   0  0  0  0  0  0  0  0  0
    3.9789    2.0824    0.0000 C   0  0  0  0  0  0  0  0  0
    3.9789    1.2574    0.0000 C   0  0  0  0  0  0  0  0  0
  1  2  1  0  0  0  0
  2  3  4  0  0  0  0
  2  7  4  0  0  0  0
  3  4  4  0  0  0  0
  4  5  4  0  0  0  0
  5  6  4  0  0  0  0
  5  8  1  0  0  0  0
  6  7  4  0  0  0  0
  8  9  1  0  0  0  0
  8 14  1  0  0  0  0
  9 10  1  0  0  0  0
 10 11  1  0  0  0  0
 11 12  1  0  0  0  0
 11 13  1  0  0  0  0
 14 15  4  0  0  0  0
 14 19  4  0  0  0  0
 15 16  4  0  0  0  0
 16 17  4  0  0  0  0
 17 18  4  0  0  0  0
 18 19  4  0  0  0  0
M  END
>  <Name_Molregno>
5-HT-N-ACETYL

>  <5-HT2A>
5

>  <5-HT2C>
5

>  <HISTAMINE H1>
8.28

>  <HISTAMINE H4>
5.54

$$$$
5-Hydroxy-Tryptamine
  Marvin  02231216192D 0   1.00000     0.00000     0

 13 14  0  0  0  0  0  0  0  0999 V2000
    0.1644   -1.0899    0.0000 O   0  0  0  0  0  0  0  0  0
   -0.5501   -0.6774    0.0000 C   0  0  0  0  0  0  0  0  0
   -1.2645   -1.0899    0.0000 C   0  0  0  0  0  0  0  0  0
   -1.9790   -0.6774    0.0000 C   0  0  0  0  0  0  0  0  0
   -1.9790    0.1476    0.0000 C   0  0  0  0  0  0  0  0  0
   -2.7636    0.4026    0.0000 N   0  0  0  0  0  0  0  0  0
   -3.2486   -0.2649    0.0000 C   0  0  0  0  0  0  0  0  0
   -2.7636   -0.9323    0.0000 C   0  0  0  0  0  0  0  0  0
   -3.0186   -1.7169    0.0000 C   0  0  0  0  0  0  0  0  0
   -3.8255   -1.8885    0.0000 C   0  0  0  0  0  0  0  0  0
   -4.0805   -2.6731    0.0000 N   0  0  0  0  0  0  0  0  0
   -1.2645    0.5601    0.0000 C   0  0  0  0  0  0  0  0  0
   -0.5501    0.1476    0.0000 C   0  0  0  0  0  0  0  0  0
  1  2  1  0  0  0  0
  2  3  4  0  0  0  0
  2 13  4  0  0  0  0
  3  4  4  0  0  0  0
  4  5  4  0  0  0  0
  4  8  4  0  0  0  0
  5  6  4  0  0  0  0
  5 12  4  0  0  0  0
  6  7  4  0  0  0  0
  7  8  4  0  0  0  0
  8  9  1  0  0  0  0
  9 10  1  0  0  0  0
 10 11  1  0  0  0  0
 12 13  4  0  0  0  0
M  STY  1   1 DAT
M  SAL   1  1   6
M  SDT   1 MRV_IMPLICIT_H                                        
M  SDD   1     0.0000    0.0000    DR    ALL  0       0  
M  SED   1 IMPL_H1
M  END
>  <Name_Molregno>
5-Hydroxy-Tryptamine

>  <5-HT1A>
8.25

>  <5-HT1B>
8.48

>  <5-HT1D>
8.54

>  <5-HT1E>
8.23

>  <5-HT2A>
7.1

>  <5-HT2C>
7.9

>  <5-HT3>
5.99

>  <5-HT5>
6.9

>  <5-HT6>
7.1

>  <5-HT7>
8.48

>  <DOPAMINE D1>
5.01

>  <DOPAMINE D2>
5

>  <DOPAMINE D5>
5.52

>  <Dopamine transporter>
5

$$$$
9-OH-risperidone
  Marvin  02231216192D 0   1.00000     0.00000     0

 31 35  0  0  1  0  0  0  0  0999 V2000
    1.7758   -2.6889    0.0000 F   0  0  0  0  0  0  0  0  0
    2.0308   -1.9043    0.0000 C   0  0  0  0  0  0  0  0  0
    1.4788   -1.2912    0.0000 C   0  0  0  0  0  0  0  0  0
    1.7337   -0.5066    0.0000 C   0  0  0  0  0  0  0  0  0
    1.3212    0.2079    0.0000 O   0  0  0  0  0  0  0  0  0
    1.8732    0.8210    0.0000 N   0  0  0  0  0  0  0  0  0
    2.6269    0.4854    0.0000 C   0  0  0  0  0  0  0  0  0
    2.5407   -0.3350    0.0000 C   0  0  0  0  0  0  0  0  0
    3.0927   -0.9481    0.0000 C   0  0  0  0  0  0  0  0  0
    2.8378   -1.7327    0.0000 C   0  0  0  0  0  0  0  0  0
    3.3414    0.8979    0.0000 C   0  0  0  0  0  0  0  0  0
    3.3414    1.7229    0.0000 C   0  0  0  0  0  0  0  0  0
    4.0558    2.1354    0.0000 C   0  0  0  0  0  0  0  0  0
    4.7703    1.7229    0.0000 N   0  0  0  0  0  0  0  0  0
    4.7703    0.8979    0.0000 C   0  0  0  0  0  0  0  0  0
    4.0558    0.4854    0.0000 C   0  0  0  0  0  0  0  0  0
    5.4848    2.1354    0.0000 C   0  0  0  0  0  0  0  0  0
    6.1993    1.7229    0.0000 C   0  0  0  0  0  0  0  0  0
    6.9137    2.1354    0.0000 C   0  0  0  0  0  0  0  0  0
    7.6282    1.7229    0.0000 C   0  0  0  0  0  0  0  0  0
    7.6282    0.8979    0.0000 O   0  0  0  0  0  0  0  0  0
    8.3427    2.1354    0.0000 N   0  0  0  0  0  0  0  0  0
    8.3427    2.9604    0.0000 C   0  0  0  0  0  0  0  0  0
    7.6282    3.3729    0.0000 N   0  0  0  0  0  0  0  0  0
    6.9137    2.9604    0.0000 C   0  0  0  0  0  0  0  0  0
    6.1993    3.3729    0.0000 C   0  0  0  0  0  0  0  0  0
    9.0571    3.3729    0.0000 C   0  0  0  0  0  0  0  0  0
    9.0571    4.1979    0.0000 O   0  0  0  0  0  0  0  0  0
    9.7716    2.9604    0.0000 C   0  0  0  0  0  0  0  0  0
    9.7716    2.1354    0.0000 C   0  0  0  0  0  0  0  0  0
    9.0571    1.7229    0.0000 C   0  0  0  0  0  0  0  0  0
  1  2  1  0  0  0  0
  2  3  4  0  0  0  0
  2 10  4  0  0  0  0
  3  4  4  0  0  0  0
  4  5  4  0  0  0  0
  4  8  4  0  0  0  0
  5  6  4  0  0  0  0
  6  7  4  0  0  0  0
  7  8  4  0  0  0  0
  7 11  1  0  0  0  0
  8  9  4  0  0  0  0
  9 10  4  0  0  0  0
 11 12  1  0  0  0  0
 11 16  1  0  0  0  0
 12 13  1  0  0  0  0
 13 14  1  0  0  0  0
 14 15  1  0  0  0  0
 14 17  1  0  0  0  0
 15 16  1  0  0  0  0
 17 18  1  0  0  0  0
 18 19  1  0  0  0  0
 19 20  1  0  0  0  0
 19 25  2  0  0  0  0
 20 21  2  0  0  0  0
 20 22  1  0  0  0  0
 22 23  1  0  0  0  0
 22 31  1  0  0  0  0
 23 24  2  0  0  0  0
 23 27  1  0  0  0  0
 24 25  1  0  0  0  0
 25 26  1  0  0  0  0
 27 28  1  0  0  0  0
 27 29  1  0  0  0  0
 29 30  1  0  0  0  0
 30 31  1  0  0  0  0
M  END
>  <Name_Molregno>
9-OH-risperidone

>  <5-HT1A>
6.24

>  <5-HT1B>
7.51

>  <5-HT1D>
7.44

>  <5-HT1E>
5.49

>  <5-HT2A>
9

>  <5-HT2C>
7.32

>  <5-HT3>
5

>  <5-HT5>
6.56

>  <5-HT6>
5.62

>  <5-HT7>
8.57

>  <Alpha-1A>
8.6

>  <Alpha-1B>
9.15

>  <Alpha-2A>
7.92

>  <Alpha-2B>
7.63

>  <Alpha-2C>
8.2

>  <Beta-1>
5.15

>  <Beta-2>
5.15

>  <DOPAMINE D1>
7.39

>  <DOPAMINE D2>
8.61

>  <DOPAMINE D3>
9.07

>  <DOPAMINE D4>
7.4

>  <DOPAMINE D5>
7.54

>  <Dopamine transporter>
5

>  <HISTAMINE H1>
8.07

>  <HISTAMINE H2>
6.92

>  <HISTAMINE H4>
5.06

>  <Muscarinic acetylcholine receptor M1>
5

>  <Muscarinic acetylcholine receptor M2>
5

>  <Muscarinic acetylcholine receptor M3>
5

>  <Muscarinic acetylcholine receptor M4>
5

>  <Muscarinic acetylcholine receptor M5>
5

>  <Norepinephrine transporter>
5

>  <Serotonin transporter>
5.71

$$$$
Acetylsalicylic-acid
  Marvin  02231216192D 0   1.00000     0.00000     0

 13 13  0  0  0  0  0  0  0  0999 V2000
    0.0203    0.5019    0.0000 O   0  0  0  0  0  0  0  0  0
    0.7347    0.0894    0.0000 C   0  0  0  0  0  0  0  0  0
    1.4492    0.5019    0.0000 O   0  0  0  0  0  0  0  0  0
    0.7347   -0.7356    0.0000 C   0  0  0  0  0  0  0  0  0
   -0.6942    0.0894    0.0000 C   0  0  0  0  0  0  0  0  0
   -0.6942   -0.7356    0.0000 C   0  0  0  0  0  0  0  0  0
   -1.4087   -1.1481    0.0000 C   0  0  0  0  0  0  0  0  0
   -2.1232   -0.7356    0.0000 C   0  0  0  0  0  0  0  0  0
   -2.1232    0.0894    0.0000 C   0  0  0  0  0  0  0  0  0
   -1.4087    0.5019    0.0000 C   0  0  0  0  0  0  0  0  0
   -1.4087    1.3269    0.0000 C   0  0  0  0  0  0  0  0  0
   -2.1232    1.7394    0.0000 O   0  0  0  0  0  0  0  0  0
   -0.6942    1.7394    0.0000 O   0  0  0  0  0  0  0  0  0
  1  2  1  0  0  0  0
  1  5  1  0  0  0  0
  2  3  2  0  0  0  0
  2  4  1  0  0  0  0
  5  6  4  0  0  0  0
  5 10  4  0  0  0  0
  6  7  4  0  0  0  0
  7  8  4  0  0  0  0
  8  9  4  0  0  0  0
  9 10  4  0  0  0  0
 10 11  1  0  0  0  0
 11 12  1  0  0  0  0
 11 13  2  0  0  0  0
M  END
>  <Name_Molregno>
Acetylsalicylic-acid

>  <5-HT1A>
5

>  <5-HT1B>
5

>  <5-HT1D>
5

>  <5-HT2A>
5

>  <5-HT3>
5

>  <5-HT5>
5

>  <5-HT6>
5

>  <5-HT7>
5

>  <Alpha-1A>
5

>  <Alpha-1B>
5

>  <Alpha-2A>
5

>  <Alpha-2B>
5

>  <Alpha-2C>
5

>  <DOPAMINE D1>
5

>  <DOPAMINE D2>
5

>  <DOPAMINE D4>
5

>  <DOPAMINE D5>
5

>  <HISTAMINE H1>
5

>  <HISTAMINE H2>
5

>  <Muscarinic acetylcholine receptor M2>
5

>  <Muscarinic acetylcholine receptor M5>
5

$$$$
Agomelatine
  Marvin  02231216192D 0   1.00000     0.00000     0

 18 19  0  0  0  0  0  0  0  0999 V2000
   -3.3589   -0.6581    0.0000 O   0  0  0  0  0  0  0  0  0
   -4.0734   -1.0706    0.0000 C   0  0  0  0  0  0  0  0  0
   -3.3589    0.1669    0.0000 C   0  0  0  0  0  0  0  0  0
   -2.6445    0.5794    0.0000 C   0  0  0  0  0  0  0  0  0
   -2.6445    1.4044    0.0000 C   0  0  0  0  0  0  0  0  0
   -3.3589    1.8169    0.0000 C   0  0  0  0  0  0  0  0  0
   -4.0734    1.4044    0.0000 C   0  0  0  0  0  0  0  0  0
   -4.0734    0.5794    0.0000 C   0  0  0  0  0  0  0  0  0
   -3.3589    2.6419    0.0000 C   0  0  0  0  0  0  0  0  0
   -2.6445    3.0544    0.0000 C   0  0  0  0  0  0  0  0  0
   -1.9300    2.6419    0.0000 C   0  0  0  0  0  0  0  0  0
   -1.9300    1.8169    0.0000 C   0  0  0  0  0  0  0  0  0
   -1.2155    1.4044    0.0000 C   0  0  0  0  0  0  0  0  0
   -1.2155    0.5794    0.0000 C   0  0  0  0  0  0  0  0  0
   -0.5011    0.1669    0.0000 N   0  0  0  0  0  0  0  0  0
    0.2134    0.5794    0.0000 C   0  0  0  0  0  0  0  0  0
    0.2134    1.4044    0.0000 O   0  0  0  0  0  0  0  0  0
    0.9279    0.1669    0.0000 C   0  0  0  0  0  0  0  0  0
  1  2  1  0  0  0  0
  1  3  1  0  0  0  0
  3  4  4  0  0  0  0
  3  8  4  0  0  0  0
  4  5  4  0  0  0  0
  5  6  4  0  0  0  0
  5 12  4  0  0  0  0
  6  7  4  0  0  0  0
  6  9  4  0  0  0  0
  7  8  4  0  0  0  0
  9 10  4  0  0  0  0
 10 11  4  0  0  0  0
 11 12  4  0  0  0  0
 12 13  1  0  0  0  0
 13 14  1  0  0  0  0
 14 15  1  0  0  0  0
 15 16  1  0  0  0  0
 16 17  2  0  0  0  0
 16 18  1  0  0  0  0
M  END
>  <Name_Molregno>
Agomelatine

>  <5-HT2A>
5.35

>  <5-HT2C>
6.15

$$$$
ALPRENOLOL
  Marvin  02231216192D 0   1.00000     0.00000     0

 18 18  0  0  1  0  0  0  0  0999 V2000
    0.0569    0.1671    0.0000 O   0  0  0  0  0  0  0  0  0
    0.7714   -0.2454    0.0000 C   0  0  0  0  0  0  0  0  0
    1.4859    0.1671    0.0000 C   0  0  0  0  0  0  0  0  0
    1.4859    0.9921    0.0000 O   0  0  0  0  0  0  0  0  0
    2.2003   -0.2454    0.0000 C   0  0  0  0  0  0  0  0  0
    2.9148    0.1671    0.0000 N   0  0  0  0  0  0  0  0  0
    3.6293   -0.2454    0.0000 C   0  0  0  0  0  0  0  0  0
    4.3437    0.1671    0.0000 C   0  0  0  0  0  0  0  0  0
    3.6293   -1.0704    0.0000 C   0  0  0  0  0  0  0  0  0
   -0.6576   -0.2454    0.0000 C   0  0  0  0  0  0  0  0  0
   -0.6576   -1.0704    0.0000 C   0  0  0  0  0  0  0  0  0
   -1.3720   -1.4829    0.0000 C   0  0  0  0  0  0  0  0  0
   -2.0865   -1.0704    0.0000 C   0  0  0  0  0  0  0  0  0
   -2.0865   -0.2454    0.0000 C   0  0  0  0  0  0  0  0  0
   -1.3720    0.1671    0.0000 C   0  0  0  0  0  0  0  0  0
   -1.3720    0.9921    0.0000 C   0  0  0  0  0  0  0  0  0
   -2.0865    1.4046    0.0000 C   0  0  0  0  0  0  0  0  0
   -2.8010    0.9921    0.0000 C   0  0  0  0  0  0  0  0  0
  1  2  1  0  0  0  0
  1 10  1  0  0  0  0
  2  3  1  0  0  0  0
  3  4  1  0  0  0  0
  3  5  1  0  0  0  0
  5  6  1  0  0  0  0
  6  7  1  0  0  0  0
  7  8  1  0  0  0  0
  7  9  1  0  0  0  0
 10 11  4  0  0  0  0
 10 15  4  0  0  0  0
 11 12  4  0  0  0  0
 12 13  4  0  0  0  0
 13 14  4  0  0  0  0
 14 15  4  0  0  0  0
 15 16  1  0  0  0  0
 16 17  1  0  0  0  0
 17 18  2  0  0  0  0
M  END
>  <Name_Molregno>
ALPRENOLOL

>  <5-HT2A>
5.29

>  <Beta-1>
8.24

>  <Beta-2>
8.92

$$$$
AMESERGIDE
  Marvin  02231216192D 0   1.00000     0.00000     0

 29 33  0  0  1  0  0  0  0  0999 V2000
    2.1198   -2.1940    0.0000 O   0  0  0  0  0  0  0  0  0
    1.4059   -1.7807    0.0000 C   0  0  0  0  0  0  0  0  0
    0.6909   -2.1923    0.0000 N   0  0  0  0  0  0  0  0  0
    0.6899   -3.0173    0.0000 C   0  0  0  0  0  0  0  0  0
    1.4039   -3.4307    0.0000 C   0  0  0  0  0  0  0  0  0
    1.4029   -4.2557    0.0000 C   0  0  0  0  0  0  0  0  0
    0.6879   -4.6673    0.0000 C   0  0  0  0  0  0  0  0  0
   -0.0260   -4.2540    0.0000 C   0  0  0  0  0  0  0  0  0
   -0.0251   -3.4290    0.0000 C   0  0  0  0  0  0  0  0  0
    1.4069   -0.9557    0.0000 C   0  0  0  0  0  0  0  0  0
    2.1218   -0.5440    0.0000 C   0  0  0  0  0  0  0  0  0
    2.1228    0.2810    0.0000 C   0  0  0  0  0  0  0  0  0
    1.4088    0.6943    0.0000 C   0  0  0  0  0  0  0  0  0
    0.6939    0.2827    0.0000 N   0  0  0  0  0  0  0  0  0
    0.6929   -0.5423    0.0000 C   0  0  0  0  0  0  0  0  0
   -0.0201    0.6960    0.0000 C   0  0  0  0  0  0  0  0  0
    1.4103    1.5185    0.0000 C   0  0  0  0  0  0  0  0  0
    2.1228    1.9310    0.0000 C   0  0  0  0  0  0  0  0  0
    2.8353    1.5185    0.0000 C   0  0  0  0  0  0  0  0  0
    2.8353    0.6935    0.0000 C   0  0  0  0  0  0  0  0  0
    3.5532    0.2810    0.0000 C   0  0  0  0  0  0  0  0  0
    4.2657    0.6935    0.0000 C   0  0  0  0  0  0  0  0  0
    4.2657    1.5185    0.0000 C   0  0  0  0  0  0  0  0  0
    3.5532    1.9310    0.0000 C   0  0  0  0  0  0  0  0  0
    3.2478    2.7881    0.0000 N   0  0  0  0  0  0  0  0  0
    2.4228    2.7881    0.0000 C   0  0  0  0  0  0  0  0  0
    3.7233    3.4623    0.0000 C   0  0  0  0  0  0  0  0  0
    3.3772    4.2112    0.0000 C   0  0  0  0  0  0  0  0  0
    4.5449    3.3876    0.0000 C   0  0  0  0  0  0  0  0  0
  1  2  2  0  0  0  0
  2  3  1  0  0  0  0
  2 10  1  0  0  0  0
  3  4  1  0  0  0  0
  4  5  1  0  0  0  0
  4  9  1  0  0  0  0
  5  6  1  0  0  0  0
  6  7  1  0  0  0  0
  7  8  1  0  0  0  0
  8  9  1  0  0  0  0
 10 11  1  0  0  0  0
 10 15  1  0  0  0  0
 11 12  1  0  0  0  0
 12 13  1  0  0  0  0
 12 20  1  0  0  0  0
 13 14  1  0  0  0  0
 13 17  1  0  0  0  0
 14 15  1  0  0  0  0
 14 16  1  0  0  0  0
 17 18  1  0  0  0  0
 18 19  4  0  0  0  0
 18 26  4  0  0  0  0
 19 20  4  0  0  0  0
 19 24  4  0  0  0  0
 20 21  4  0  0  0  0
 21 22  4  0  0  0  0
 22 23  4  0  0  0  0
 23 24  4  0  0  0  0
 24 25  4  0  0  0  0
 25 26  4  0  0  0  0
 25 27  1  0  0  0  0
 27 28  1  0  0  0  0
 27 29  1  0  0  0  0
M  END
>  <Name_Molregno>
AMESERGIDE

>  <5-HT2A>
7.82

>  <5-HT2C>
8.2

$$$$
AMI-193
  Marvin  02231216192D 0   1.00000     0.00000     0

 28 31  0  0  0  0  0  0  0  0999 V2000
   10.6601    0.0204    0.0000 F   0  0  0  0  0  0  0  0  0
    9.8351    0.0204    0.0000 C   0  0  0  0  0  0  0  0  0
    9.4226   -0.6941    0.0000 C   0  0  0  0  0  0  0  0  0
    8.5976   -0.6941    0.0000 C   0  0  0  0  0  0  0  0  0
    8.1851    0.0204    0.0000 C   0  0  0  0  0  0  0  0  0
    7.3601    0.0204    0.0000 O   0  0  0  0  0  0  0  0  0
    6.9476   -0.6941    0.0000 C   0  0  0  0  0  0  0  0  0
    6.1226   -0.6941    0.0000 C   0  0  0  0  0  0  0  0  0
    5.7101   -1.4086    0.0000 C   0  0  0  0  0  0  0  0  0
    4.8851   -1.4086    0.0000 N   0  0  0  0  0  0  0  0  0
    4.4726   -2.1231    0.0000 C   0  0  0  0  0  0  0  0  0
    3.6476   -2.1231    0.0000 C   0  0  0  0  0  0  0  0  0
    3.2351   -1.4086    0.0000 C   0  0  0  0  0  0  0  0  0
    2.7502   -2.0760    0.0000 N   0  0  0  0  0  0  0  0  0
    1.9656   -1.8211    0.0000 C   0  0  0  0  0  0  0  0  0
    1.9656   -0.9961    0.0000 N   0  0  0  0  0  0  0  0  0
    2.7502   -0.7411    0.0000 C   0  0  0  0  0  0  0  0  0
    3.0051    0.0435    0.0000 O   0  0  0  0  0  0  0  0  0
    3.0051   -2.8606    0.0000 C   0  0  0  0  0  0  0  0  0
    3.8121   -3.0322    0.0000 C   0  0  0  0  0  0  0  0  0
    4.0670   -3.8168    0.0000 C   0  0  0  0  0  0  0  0  0
    3.5150   -4.4299    0.0000 C   0  0  0  0  0  0  0  0  0
    2.7080   -4.2584    0.0000 C   0  0  0  0  0  0  0  0  0
    2.4531   -3.4737    0.0000 C   0  0  0  0  0  0  0  0  0
    3.6476   -0.6941    0.0000 C   0  0  0  0  0  0  0  0  0
    4.4726   -0.6941    0.0000 C   0  0  0  0  0  0  0  0  0
    8.5976    0.7348    0.0000 C   0  0  0  0  0  0  0  0  0
    9.4226    0.7348    0.0000 C   0  0  0  0  0  0  0  0  0
  1  2  1  0  0  0  0
  2  3  4  0  0  0  0
  2 28  4  0  0  0  0
  3  4  4  0  0  0  0
  4  5  4  0  0  0  0
  5  6  1  0  0  0  0
  5 27  4  0  0  0  0
  6  7  1  0  0  0  0
  7  8  1  0  0  0  0
  8  9  1  0  0  0  0
  9 10  1  0  0  0  0
 10 11  1  0  0  0  0
 10 26  1  0  0  0  0
 11 12  1  0  0  0  0
 12 13  1  0  0  0  0
 13 14  1  0  0  0  0
 13 17  1  0  0  0  0
 13 25  1  0  0  0  0
 14 15  1  0  0  0  0
 14 19  1  0  0  0  0
 15 16  1  0  0  0  0
 16 17  1  0  0  0  0
 17 18  2  0  0  0  0
 19 20  4  0  0  0  0
 19 24  4  0  0  0  0
 20 21  4  0  0  0  0
 21 22  4  0  0  0  0
 22 23  4  0  0  0  0
 23 24  4  0  0  0  0
 25 26  1  0  0  0  0
 27 28  4  0  0  0  0
M  END
>  <Name_Molregno>
AMI-193

>  <5-HT2A>
7.65

>  <5-HT2C>
5.81

$$$$
AMITRIPTYLINE
  Marvin  02231216192D 0   1.00000     0.00000     0

 21 23  0  0  0  0  0  0  0  0999 V2000
    0.4326    2.9044    0.0000 N   0  0  0  0  0  0  0  0  0
    1.1470    2.4919    0.0000 C   0  0  0  0  0  0  0  0  0
    1.8615    2.9044    0.0000 C   0  0  0  0  0  0  0  0  0
    2.5760    2.4919    0.0000 C   0  0  0  0  0  0  0  0  0
    2.5760    1.6669    0.0000 C   0  0  0  0  0  0  0  0  0
    3.3193    1.3089    0.0000 C   0  0  0  0  0  0  0  0  0
    3.5029    0.5046    0.0000 C   0  0  0  0  0  0  0  0  0
    2.9885   -0.1404    0.0000 C   0  0  0  0  0  0  0  0  0
    2.1635   -0.1404    0.0000 C   0  0  0  0  0  0  0  0  0
    1.6491    0.5046    0.0000 C   0  0  0  0  0  0  0  0  0
    1.8327    1.3089    0.0000 C   0  0  0  0  0  0  0  0  0
    1.2279    1.8701    0.0000 C   0  0  0  0  0  0  0  0  0
    0.4396    1.6269    0.0000 C   0  0  0  0  0  0  0  0  0
    0.2560    0.8226    0.0000 C   0  0  0  0  0  0  0  0  0
    0.8608    0.2615    0.0000 C   0  0  0  0  0  0  0  0  0
    4.2912    0.2615    0.0000 C   0  0  0  0  0  0  0  0  0
    4.8960    0.8226    0.0000 C   0  0  0  0  0  0  0  0  0
    4.7124    1.6269    0.0000 C   0  0  0  0  0  0  0  0  0
    3.9241    1.8701    0.0000 C   0  0  0  0  0  0  0  0  0
   -0.2819    2.4919    0.0000 C   0  0  0  0  0  0  0  0  0
    0.4326    3.7294    0.0000 C   0  0  0  0  0  0  0  0  0
  1  2  1  0  0  0  0
  1 20  1  0  0  0  0
  1 21  1  0  0  0  0
  2  3  1  0  0  0  0
  3  4  1  0  0  0  0
  4  5  2  0  0  0  0
  5  6  1  0  0  0  0
  5 11  1  0  0  0  0
  6  7  4  0  0  0  0
  6 19  4  0  0  0  0
  7  8  1  0  0  0  0
  7 16  4  0  0  0  0
  8  9  1  0  0  0  0
  9 10  1  0  0  0  0
 10 11  4  0  0  0  0
 10 15  4  0  0  0  0
 11 12  4  0  0  0  0
 12 13  4  0  0  0  0
 13 14  4  0  0  0  0
 14 15  4  0  0  0  0
 16 17  4  0  0  0  0
 17 18  4  0  0  0  0
 18 19  4  0  0  0  0
M  END
>  <Name_Molregno>
AMITRIPTYLINE

>  <5-HT1A>
6.35

>  <5-HT2A>
7.64

>  <5-HT6>
7.02

>  <DOPAMINE D1>
7.05

>  <DOPAMINE D2>
6.42

>  <DOPAMINE D3>
6.69

>  <DOPAMINE D5>
6.77

>  <Dopamine transporter>
5.4

>  <HISTAMINE H1>
9.08

>  <HISTAMINE H3>
6

>  <HISTAMINE H4>
7.47

>  <Muscarinic acetylcholine receptor M1>
7.89

>  <Muscarinic acetylcholine receptor M2>
7.93

>  <Muscarinic acetylcholine receptor M3>
7.65

>  <Muscarinic acetylcholine receptor M4>
8.14

>  <Muscarinic acetylcholine receptor M5>
7.71

>  <Norepinephrine transporter>
7.45

>  <Serotonin transporter>
8

$$$$
AMOXAPINE
  Marvin  02231216192D 0   1.00000     0.00000     0

 22 25  0  0  0  0  0  0  0  0999 V2000
    4.1595    1.7861    0.0000 Cl  0  0  0  0  0  0  0  0  0
    3.3712    1.5429    0.0000 C   0  0  0  0  0  0  0  0  0
    2.7664    2.1041    0.0000 C   0  0  0  0  0  0  0  0  0
    1.9781    1.8609    0.0000 C   0  0  0  0  0  0  0  0  0
    1.7945    1.0566    0.0000 C   0  0  0  0  0  0  0  0  0
    1.0512    0.6986    0.0000 O   0  0  0  0  0  0  0  0  0
    0.3079    1.0566    0.0000 C   0  0  0  0  0  0  0  0  0
    0.1243    1.8609    0.0000 C   0  0  0  0  0  0  0  0  0
    0.6387    2.5059    0.0000 N   0  0  0  0  0  0  0  0  0
    1.4637    2.5059    0.0000 C   0  0  0  0  0  0  0  0  0
    1.8217    3.2492    0.0000 N   0  0  0  0  0  0  0  0  0
    1.3569    3.9309    0.0000 C   0  0  0  0  0  0  0  0  0
    1.7149    4.6742    0.0000 C   0  0  0  0  0  0  0  0  0
    2.5376    4.7358    0.0000 N   0  0  0  0  0  0  0  0  0
    3.0023    4.0542    0.0000 C   0  0  0  0  0  0  0  0  0
    2.6444    3.3109    0.0000 C   0  0  0  0  0  0  0  0  0
   -0.6640    2.1041    0.0000 C   0  0  0  0  0  0  0  0  0
   -1.2688    1.5429    0.0000 C   0  0  0  0  0  0  0  0  0
   -1.0852    0.7386    0.0000 C   0  0  0  0  0  0  0  0  0
   -0.2969    0.4954    0.0000 C   0  0  0  0  0  0  0  0  0
    2.3993    0.4954    0.0000 C   0  0  0  0  0  0  0  0  0
    3.1876    0.7386    0.0000 C   0  0  0  0  0  0  0  0  0
  1  2  1  0  0  0  0
  2  3  4  0  0  0  0
  2 22  4  0  0  0  0
  3  4  4  0  0  0  0
  4  5  4  0  0  0  0
  4 10  1  0  0  0  0
  5  6  1  0  0  0  0
  5 21  4  0  0  0  0
  6  7  1  0  0  0  0
  7  8  4  0  0  0  0
  7 20  4  0  0  0  0
  8  9  1  0  0  0  0
  8 17  4  0  0  0  0
  9 10  2  0  0  0  0
 10 11  1  0  0  0  0
 11 12  1  0  0  0  0
 11 16  1  0  0  0  0
 12 13  1  0  0  0  0
 13 14  1  0  0  0  0
 14 15  1  0  0  0  0
 15 16  1  0  0  0  0
 17 18  4  0  0  0  0
 18 19  4  0  0  0  0
 19 20  4  0  0  0  0
 21 22  4  0  0  0  0
M  END
>  <Name_Molregno>
AMOXAPINE

>  <5-HT2A>
9.3

>  <5-HT6>
7.3

>  <5-HT7>
6.3

>  <DOPAMINE D2>
7.89

>  <DOPAMINE D3>
7.74

>  <DOPAMINE D4>
8.05

>  <Dopamine transporter>
5.37

>  <Norepinephrine transporter>
7.8

>  <Serotonin transporter>
7.24

$$$$
APOMORPHINE
  Marvin  02231216192D 0   1.00000     0.00000     0

 20 23  0  0  1  0  0  0  0  0999 V2000
    3.2214   -1.7908    0.0000 O   0  0  0  0  0  0  0  0  0
    3.2214   -0.9658    0.0000 C   0  0  0  0  0  0  0  0  0
    2.5070   -0.5533    0.0000 C   0  0  0  0  0  0  0  0  0
    2.5070    0.2717    0.0000 C   0  0  0  0  0  0  0  0  0
    1.7925    0.6842    0.0000 C   0  0  0  0  0  0  0  0  0
    1.0780    0.2717    0.0000 C   0  0  0  0  0  0  0  0  0
    0.3635    0.6842    0.0000 N   0  0  0  0  0  0  0  0  0
   -0.3509    0.2717    0.0000 C   0  0  0  0  0  0  0  0  0
   -0.3509   -0.5533    0.0000 C   0  0  0  0  0  0  0  0  0
    0.3635   -0.9658    0.0000 C   0  0  0  0  0  0  0  0  0
    1.0780   -0.5533    0.0000 C   0  0  0  0  0  0  0  0  0
    1.7925   -0.9658    0.0000 C   0  0  0  0  0  0  0  0  0
    1.7925   -1.7908    0.0000 C   0  0  0  0  0  0  0  0  0
    1.0780   -2.2033    0.0000 C   0  0  0  0  0  0  0  0  0
    0.3635   -1.7908    0.0000 C   0  0  0  0  0  0  0  0  0
    0.3635    1.5092    0.0000 C   0  0  0  0  0  0  0  0  0
    3.2214    0.6842    0.0000 C   0  0  0  0  0  0  0  0  0
    3.9359    0.2717    0.0000 C   0  0  0  0  0  0  0  0  0
    3.9359   -0.5533    0.0000 C   0  0  0  0  0  0  0  0  0
    4.6504   -0.9658    0.0000 O   0  0  0  0  0  0  0  0  0
  1  2  1  0  0  0  0
  2  3  4  0  0  0  0
  2 19  4  0  0  0  0
  3  4  4  0  0  0  0
  3 12  1  0  0  0  0
  4  5  1  0  0  0  0
  4 17  4  0  0  0  0
  5  6  1  0  0  0  0
  6  7  1  0  0  0  0
  6 11  1  0  0  0  0
  7  8  1  0  0  0  0
  7 16  1  0  0  0  0
  8  9  1  0  0  0  0
  9 10  1  0  0  0  0
 10 11  4  0  0  0  0
 10 15  4  0  0  0  0
 11 12  4  0  0  0  0
 12 13  4  0  0  0  0
 13 14  4  0  0  0  0
 14 15  4  0  0  0  0
 17 18  4  0  0  0  0
 18 19  4  0  0  0  0
 19 20  1  0  0  0  0
M  END
>  <Name_Molregno>
APOMORPHINE

>  <5-HT1A>
6.12

>  <5-HT1B>
5.53

>  <5-HT1D>
5.91

>  <5-HT2A>
6.63

>  <5-HT2C>
6.99

>  <Alpha-1A>
5.7

>  <Alpha-1B>
6.17

>  <Alpha-2A>
6.85

>  <Alpha-2B>
7.18

>  <Alpha-2C>
7.44

>  <Beta-1>
5

>  <Beta-2>
5

>  <DOPAMINE D1>
6.4

>  <DOPAMINE D2>
7.34

>  <DOPAMINE D3>
7.65

>  <DOPAMINE D4>
7.92

>  <DOPAMINE D5>
7.14

$$$$
ARIPIPRAZOLE
  Marvin  02231216192D 0   1.00000     0.00000     0

 30 33  0  0  0  0  0  0  0  0999 V2000
   -8.7485    0.0493    0.0000 Cl  0  0  0  0  0  0  0  0  0
   -8.7485   -0.7757    0.0000 C   0  0  0  0  0  0  0  0  0
   -8.0340   -1.1882    0.0000 C   0  0  0  0  0  0  0  0  0
   -7.3195   -0.7757    0.0000 N   0  0  0  0  0  0  0  0  0
   -7.3195    0.0493    0.0000 C   0  0  0  0  0  0  0  0  0
   -6.6051    0.4618    0.0000 C   0  0  0  0  0  0  0  0  0
   -5.8906    0.0493    0.0000 N   0  0  0  0  0  0  0  0  0
   -5.8906   -0.7757    0.0000 C   0  0  0  0  0  0  0  0  0
   -6.6051   -1.1882    0.0000 C   0  0  0  0  0  0  0  0  0
   -5.1761    0.4618    0.0000 C   0  0  0  0  0  0  0  0  0
   -4.4616    0.0493    0.0000 C   0  0  0  0  0  0  0  0  0
   -3.7472    0.4618    0.0000 C   0  0  0  0  0  0  0  0  0
   -3.0327    0.0493    0.0000 C   0  0  0  0  0  0  0  0  0
   -2.3182    0.4618    0.0000 O   0  0  0  0  0  0  0  0  0
   -1.6038    0.0493    0.0000 C   0  0  0  0  0  0  0  0  0
   -0.8893    0.4618    0.0000 C   0  0  0  0  0  0  0  0  0
   -0.1748    0.0493    0.0000 C   0  0  0  0  0  0  0  0  0
    0.5397    0.4618    0.0000 N   0  0  0  0  0  0  0  0  0
    1.2541    0.0493    0.0000 C   0  0  0  0  0  0  0  0  0
    1.9686    0.4618    0.0000 O   0  0  0  0  0  0  0  0  0
    1.2541   -0.7757    0.0000 C   0  0  0  0  0  0  0  0  0
    0.5397   -1.1882    0.0000 C   0  0  0  0  0  0  0  0  0
   -0.1748   -0.7757    0.0000 C   0  0  0  0  0  0  0  0  0
   -0.8893   -1.1882    0.0000 C   0  0  0  0  0  0  0  0  0
   -1.6038   -0.7757    0.0000 C   0  0  0  0  0  0  0  0  0
   -8.0340   -2.0132    0.0000 C   0  0  0  0  0  0  0  0  0
   -8.7485   -2.4257    0.0000 C   0  0  0  0  0  0  0  0  0
   -9.4629   -2.0132    0.0000 C   0  0  0  0  0  0  0  0  0
   -9.4629   -1.1882    0.0000 C   0  0  0  0  0  0  0  0  0
  -10.1774   -0.7757    0.0000 Cl  0  0  0  0  0  0  0  0  0
  1  2  1  0  0  0  0
  2  3  4  0  0  0  0
  2 29  4  0  0  0  0
  3  4  1  0  0  0  0
  3 26  4  0  0  0  0
  4  5  1  0  0  0  0
  4  9  1  0  0  0  0
  5  6  1  0  0  0  0
  6  7  1  0  0  0  0
  7  8  1  0  0  0  0
  7 10  1  0  0  0  0
  8  9  1  0  0  0  0
 10 11  1  0  0  0  0
 11 12  1  0  0  0  0
 12 13  1  0  0  0  0
 13 14  1  0  0  0  0
 14 15  1  0  0  0  0
 15 16  4  0  0  0  0
 15 25  4  0  0  0  0
 16 17  4  0  0  0  0
 17 18  1  0  0  0  0
 17 23  4  0  0  0  0
 18 19  1  0  0  0  0
 19 20  2  0  0  0  0
 19 21  1  0  0  0  0
 21 22  1  0  0  0  0
 22 23  1  0  0  0  0
 23 24  4  0  0  0  0
 24 25  4  0  0  0  0
 26 27  4  0  0  0  0
 27 28  4  0  0  0  0
 28 29  4  0  0  0  0
 29 30  1  0  0  0  0
M  END
>  <Name_Molregno>
ARIPIPRAZOLE

>  <5-HT1A>
8.21

>  <5-HT1B>
6.08

>  <5-HT1D>
7.18

>  <5-HT1E>
5.1

>  <5-HT2A>
7.85

>  <5-HT2C>
7.48

>  <5-HT3>
6.25

>  <5-HT5>
5.91

>  <5-HT6>
6.32

>  <5-HT7>
7.81

>  <Alpha-1A>
7.59

>  <Alpha-1B>
7.46

>  <Alpha-2A>
7.13

>  <Alpha-2B>
6.99

>  <Alpha-2C>
7.42

>  <Beta-1>
6.85

>  <Beta-2>
6.79

>  <DOPAMINE D1>
6.06

>  <DOPAMINE D2>
8.72

>  <DOPAMINE D3>
8.45

>  <DOPAMINE D4>
6.51

>  <DOPAMINE D5>
5.69

>  <Dopamine transporter>
5.49

>  <HISTAMINE H1>
7.56

>  <HISTAMINE H2>
5

>  <HISTAMINE H4>
5

>  <Muscarinic acetylcholine receptor M1>
5.17

>  <Muscarinic acetylcholine receptor M2>
5.45

>  <Muscarinic acetylcholine receptor M3>
5.33

>  <Muscarinic acetylcholine receptor M4>
5.82

>  <Muscarinic acetylcholine receptor M5>
5.63

>  <Norepinephrine transporter>
5.68

>  <Serotonin transporter>
6.48

$$$$
ATENOLOL
  Marvin  02231216192D 0   1.00000     0.00000     0

 19 19  0  0  1  0  0  0  0  0999 V2000
   -0.1473   -1.4603    0.0000 O   0  0  0  0  0  0  0  0  0
    0.5672   -1.0478    0.0000 C   0  0  0  0  0  0  0  0  0
    1.2816   -1.4603    0.0000 C   0  0  0  0  0  0  0  0  0
    1.2816   -2.2853    0.0000 O   0  0  0  0  0  0  0  0  0
    1.9961   -1.0478    0.0000 C   0  0  0  0  0  0  0  0  0
    2.7106   -1.4603    0.0000 N   0  0  0  0  0  0  0  0  0
    3.4251   -1.0478    0.0000 C   0  0  0  0  0  0  0  0  0
    4.1395   -1.4603    0.0000 C   0  0  0  0  0  0  0  0  0
    3.4251   -0.2228    0.0000 C   0  0  0  0  0  0  0  0  0
   -0.8618   -1.0478    0.0000 C   0  0  0  0  0  0  0  0  0
   -1.5762   -1.4603    0.0000 C   0  0  0  0  0  0  0  0  0
   -2.2907   -1.0478    0.0000 C   0  0  0  0  0  0  0  0  0
   -2.2907   -0.2228    0.0000 C   0  0  0  0  0  0  0  0  0
   -1.5762    0.1897    0.0000 C   0  0  0  0  0  0  0  0  0
   -0.8618   -0.2228    0.0000 C   0  0  0  0  0  0  0  0  0
   -3.0052    0.1897    0.0000 C   0  0  0  0  0  0  0  0  0
   -3.0052    1.0147    0.0000 C   0  0  0  0  0  0  0  0  0
   -3.7196    1.4272    0.0000 O   0  0  0  0  0  0  0  0  0
   -2.2907    1.4272    0.0000 N   0  0  0  0  0  0  0  0  0
  1  2  1  0  0  0  0
  1 10  1  0  0  0  0
  2  3  1  0  0  0  0
  3  4  1  0  0  0  0
  3  5  1  0  0  0  0
  5  6  1  0  0  0  0
  6  7  1  0  0  0  0
  7  8  1  0  0  0  0
  7  9  1  0  0  0  0
 10 11  4  0  0  0  0
 10 15  4  0  0  0  0
 11 12  4  0  0  0  0
 12 13  4  0  0  0  0
 13 14  4  0  0  0  0
 13 16  1  0  0  0  0
 14 15  4  0  0  0  0
 16 17  1  0  0  0  0
 17 18  2  0  0  0  0
 17 19  1  0  0  0  0
M  END
>  <Name_Molregno>
ATENOLOL

>  <5-HT2A>
5

>  <Beta-1>
6.41

>  <Beta-2>
5.09

$$$$
Atomoxetine
  Marvin  02231216192D 0   1.00000     0.00000     0

 19 20  0  0  1  0  0  0  0  0999 V2000
   -0.2008    0.4420    0.0000 O   0  0  0  0  0  0  0  0  0
    0.5136    0.8545    0.0000 C   0  0  0  0  0  0  0  0  0
    1.2281    0.4420    0.0000 C   0  0  0  0  0  0  0  0  0
    1.9426    0.8545    0.0000 C   0  0  0  0  0  0  0  0  0
    2.6570    0.4420    0.0000 N   0  0  0  0  0  0  0  0  0
    2.6570   -0.3830    0.0000 C   0  0  0  0  0  0  0  0  0
    0.5136    1.6795    0.0000 C   0  0  0  0  0  0  0  0  0
   -0.2008    2.0920    0.0000 C   0  0  0  0  0  0  0  0  0
   -0.2008    2.9170    0.0000 C   0  0  0  0  0  0  0  0  0
    0.5136    3.3295    0.0000 C   0  0  0  0  0  0  0  0  0
    1.2281    2.9170    0.0000 C   0  0  0  0  0  0  0  0  0
    1.2281    2.0920    0.0000 C   0  0  0  0  0  0  0  0  0
   -0.2008   -0.3830    0.0000 C   0  0  0  0  0  0  0  0  0
    0.5136   -0.7955    0.0000 C   0  0  0  0  0  0  0  0  0
    0.5136   -1.6205    0.0000 C   0  0  0  0  0  0  0  0  0
   -0.2008   -2.0330    0.0000 C   0  0  0  0  0  0  0  0  0
   -0.9153   -1.6205    0.0000 C   0  0  0  0  0  0  0  0  0
   -0.9153   -0.7955    0.0000 C   0  0  0  0  0  0  0  0  0
   -1.6298   -0.3830    0.0000 C   0  0  0  0  0  0  0  0  0
  1  2  1  0  0  0  0
  1 13  1  0  0  0  0
  2  3  1  0  0  0  0
  2  7  1  0  0  0  0
  3  4  1  0  0  0  0
  4  5  1  0  0  0  0
  5  6  1  0  0  0  0
  7  8  4  0  0  0  0
  7 12  4  0  0  0  0
  8  9  4  0  0  0  0
  9 10  4  0  0  0  0
 10 11  4  0  0  0  0
 11 12  4  0  0  0  0
 13 14  4  0  0  0  0
 13 18  4  0  0  0  0
 14 15  4  0  0  0  0
 15 16  4  0  0  0  0
 16 17  4  0  0  0  0
 17 18  4  0  0  0  0
 18 19  1  0  0  0  0
M  END
>  <Name_Molregno>
Atomoxetine

>  <5-HT1A>
5.5

>  <5-HT1B>
6

>  <5-HT1D>
6

>  <5-HT2A>
6

>  <5-HT2C>
6

>  <5-HT6>
6

>  <5-HT7>
6

>  <Alpha-2A>
6

>  <DOPAMINE D2>
5.5

>  <Dopamine transporter>
5.88

>  <HISTAMINE H1>
5.63

>  <Muscarinic acetylcholine receptor M1>
6

>  <Muscarinic acetylcholine receptor M2>
6

>  <Norepinephrine transporter>
8.43

>  <Serotonin transporter>
7.42

$$$$
ATR
  Marvin  02231216192D 0   1.00000     0.00000     0

 21 23  0  0  1  0  0  0  0  0999 V2000
    1.2790    0.7485    0.0000 O   0  0  0  0  0  0  0  0  0
    0.8658    0.0345    0.0000 C   0  0  0  0  0  0  0  0  0
    0.0408    0.0353    0.0000 O   0  0  0  0  0  0  0  0  0
    1.2776   -0.6804    0.0000 C   0  0  0  0  0  0  0  0  0
    2.1026   -0.6812    0.0000 C   0  0  0  0  0  0  0  0  0
    2.5144   -1.3961    0.0000 O   0  0  0  0  0  0  0  0  0
    0.8644   -1.3945    0.0000 C   0  0  0  0  0  0  0  0  0
    1.2762   -2.1093    0.0000 C   0  0  0  0  0  0  0  0  0
    0.8630   -2.8234    0.0000 C   0  0  0  0  0  0  0  0  0
    0.0380   -2.8226    0.0000 C   0  0  0  0  0  0  0  0  0
   -0.3738   -2.1077    0.0000 C   0  0  0  0  0  0  0  0  0
    0.0394   -1.3937    0.0000 C   0  0  0  0  0  0  0  0  0
    0.8672    1.4634    0.0000 C   0  0  0  0  0  0  0  0  0
    0.7290    2.2808    0.0000 C   0  0  0  0  0  0  0  0  0
   -0.1998    2.2653    0.0000 C   0  0  0  0  0  0  0  0  0
   -0.7604    2.7052    0.0000 N   0  0  0  0  0  0  0  0  0
   -0.6207    1.8921    0.0000 C   0  0  0  0  0  0  0  0  0
    0.3510    1.8921    0.0000 C   0  0  0  0  0  0  0  0  0
   -1.1406    1.1798    0.0000 C   0  0  0  0  0  0  0  0  0
   -0.5203    1.5567    0.0000 C   0  0  0  0  0  0  0  0  0
   -1.1830    3.4137    0.0000 C   0  0  0  0  0  0  0  0  0
  1  2  1  0  0  0  0
  1 13  1  0  0  0  0
  2  3  2  0  0  0  0
  2  4  1  0  0  0  0
  4  5  1  0  0  0  0
  4  7  1  0  0  0  0
  5  6  1  0  0  0  0
  7  8  4  0  0  0  0
  7 12  4  0  0  0  0
  8  9  4  0  0  0  0
  9 10  4  0  0  0  0
 10 11  4  0  0  0  0
 11 12  4  0  0  0  0
 13 14  1  0  0  0  0
 13 18  1  0  0  0  0
 14 15  1  0  0  0  0
 15 16  1  0  0  0  0
 15 20  1  0  0  0  0
 16 17  1  0  0  0  0
 16 21  1  0  0  0  0
 17 18  1  0  0  0  0
 17 19  1  0  0  0  0
 19 20  1  0  0  0  0
M  END
>  <Name_Molregno>
ATR

>  <5-HT2A>
5.15

>  <5-HT3>
5

>  <HISTAMINE H1>
5.86

>  <Muscarinic acetylcholine receptor M1>
9.33

>  <Muscarinic acetylcholine receptor M2>
8.97

>  <Muscarinic acetylcholine receptor M3>
9.48

>  <Muscarinic acetylcholine receptor M4>
9.4

>  <Muscarinic acetylcholine receptor M5>
9.33

$$$$
BE-2254
  Marvin  02231216192D 0   1.00000     0.00000     0

 22 24  0  0  1  0  0  0  0  0999 V2000
    0.2871   -2.3973    0.0000 O   0  0  0  0  0  0  0  0  0
    1.0016   -1.9848    0.0000 C   0  0  0  0  0  0  0  0  0
    1.0016   -1.1598    0.0000 C   0  0  0  0  0  0  0  0  0
    1.7160   -0.7473    0.0000 C   0  0  0  0  0  0  0  0  0
    2.4305   -1.1598    0.0000 C   0  0  0  0  0  0  0  0  0
    2.4305   -1.9848    0.0000 C   0  0  0  0  0  0  0  0  0
    1.7160   -2.3973    0.0000 C   0  0  0  0  0  0  0  0  0
    3.1450   -0.7473    0.0000 C   0  0  0  0  0  0  0  0  0
    3.8594   -1.1598    0.0000 C   0  0  0  0  0  0  0  0  0
    4.5739   -0.7473    0.0000 N   0  0  0  0  0  0  0  0  0
    5.2884   -1.1598    0.0000 C   0  0  0  0  0  0  0  0  0
    6.0029   -0.7473    0.0000 C   0  0  0  0  0  0  0  0  0
    6.7173   -1.1598    0.0000 C   0  0  0  0  0  0  0  0  0
    7.4318   -0.7473    0.0000 C   0  0  0  0  0  0  0  0  0
    7.4318    0.0777    0.0000 C   0  0  0  0  0  0  0  0  0
    6.7173    0.4902    0.0000 C   0  0  0  0  0  0  0  0  0
    6.7173    1.3152    0.0000 C   0  0  0  0  0  0  0  0  0
    7.4318    1.7277    0.0000 C   0  0  0  0  0  0  0  0  0
    8.1463    1.3152    0.0000 C   0  0  0  0  0  0  0  0  0
    8.1463    0.4902    0.0000 C   0  0  0  0  0  0  0  0  0
    6.0029    0.0777    0.0000 C   0  0  0  0  0  0  0  0  0
    5.2884    0.4902    0.0000 O   0  0  0  0  0  0  0  0  0
  1  2  1  0  0  0  0
  2  3  4  0  0  0  0
  2  7  4  0  0  0  0
  3  4  4  0  0  0  0
  4  5  4  0  0  0  0
  5  6  4  0  0  0  0
  5  8  1  0  0  0  0
  6  7  4  0  0  0  0
  8  9  1  0  0  0  0
  9 10  1  0  0  0  0
 10 11  1  0  0  0  0
 11 12  1  0  0  0  0
 12 13  1  0  0  0  0
 12 21  1  0  0  0  0
 13 14  1  0  0  0  0
 14 15  1  0  0  0  0
 15 16  4  0  0  0  0
 15 20  4  0  0  0  0
 16 17  4  0  0  0  0
 16 21  1  0  0  0  0
 17 18  4  0  0  0  0
 18 19  4  0  0  0  0
 19 20  4  0  0  0  0
 21 22  2  0  0  0  0
M  END
>  <Name_Molregno>
BE-2254

>  <5-HT2A>
6.01

$$$$
B-HT920
  Marvin  02231216192D 0   1.00000     0.00000     0

 14 15  0  0  0  0  0  0  0  0999 V2000
   -3.1193    0.1933    0.0000 S   0  0  0  0  0  0  0  0  0
   -2.3347   -0.0617    0.0000 C   0  0  0  0  0  0  0  0  0
   -1.6896    0.4527    0.0000 C   0  0  0  0  0  0  0  0  0
   -0.8853    0.2691    0.0000 C   0  0  0  0  0  0  0  0  0
   -0.5274   -0.4742    0.0000 N   0  0  0  0  0  0  0  0  0
   -0.8853   -1.2175    0.0000 C   0  0  0  0  0  0  0  0  0
   -1.6896   -1.4010    0.0000 C   0  0  0  0  0  0  0  0  0
   -2.3347   -0.8867    0.0000 C   0  0  0  0  0  0  0  0  0
   -3.1193   -1.1416    0.0000 N   0  0  0  0  0  0  0  0  0
   -3.6042   -0.4742    0.0000 C   0  0  0  0  0  0  0  0  0
   -4.4292   -0.4742    0.0000 N   0  0  0  0  0  0  0  0  0
    0.2976   -0.4742    0.0000 C   0  0  0  0  0  0  0  0  0
    0.7101   -1.1886    0.0000 C   0  0  0  0  0  0  0  0  0
    1.5351   -1.1886    0.0000 C   0  0  0  0  0  0  0  0  0
  1  2  4  0  0  0  0
  1 10  4  0  0  0  0
  2  3  1  0  0  0  0
  2  8  4  0  0  0  0
  3  4  1  0  0  0  0
  4  5  1  0  0  0  0
  5  6  1  0  0  0  0
  5 12  1  0  0  0  0
  6  7  1  0  0  0  0
  7  8  1  0  0  0  0
  8  9  4  0  0  0  0
  9 10  4  0  0  0  0
 10 11  1  0  0  0  0
 12 13  1  0  0  0  0
 13 14  2  0  0  0  0
M  END
>  <Name_Molregno>
B-HT920

>  <5-HT1A>
5.77

>  <5-HT1B>
5

>  <5-HT1D>
5

>  <5-HT2A>
5

>  <5-HT2C>
5

>  <Alpha-1A>
5

>  <Alpha-1B>
5.41

>  <Alpha-2A>
6.91

>  <Alpha-2B>
6.69

>  <Alpha-2C>
6.69

>  <Beta-1>
5

>  <Beta-2>
5

>  <DOPAMINE D1>
5

>  <DOPAMINE D2>
6.88

>  <DOPAMINE D3>
7.8

>  <DOPAMINE D4>
6.48

>  <DOPAMINE D5>
5.46

$$$$
BROMOCRIPTINE
  Marvin  02231216192D 0   1.00000     0.00000     0

 43 49  0  0  1  0  0  0  0  0999 V2000
    6.2699    4.4922    0.0000 Br  0  0  0  0  0  0  0  0  0
    6.7473    3.8193    0.0000 C   0  0  0  0  0  0  0  0  0
    7.5723    3.8193    0.0000 N   0  0  0  0  0  0  0  0  0
    7.8776    2.9622    0.0000 C   0  0  0  0  0  0  0  0  0
    7.1598    2.5497    0.0000 C   0  0  0  0  0  0  0  0  0
    6.4473    2.9622    0.0000 C   0  0  0  0  0  0  0  0  0
    5.7348    2.5497    0.0000 C   0  0  0  0  0  0  0  0  0
    5.7348    1.7247    0.0000 C   0  0  0  0  0  0  0  0  0
    5.0198    1.3130    0.0000 N   0  0  0  0  0  0  0  0  0
    5.0188    0.4880    0.0000 C   0  0  0  0  0  0  0  0  0
    5.7328    0.0747    0.0000 C   0  0  0  0  0  0  0  0  0
    6.4478    0.4863    0.0000 C   0  0  0  0  0  0  0  0  0
    6.4488    1.3113    0.0000 C   0  0  0  0  0  0  0  0  0
    7.1598    1.7247    0.0000 C   0  0  0  0  0  0  0  0  0
    7.8776    1.3122    0.0000 C   0  0  0  0  0  0  0  0  0
    8.5901    1.7247    0.0000 C   0  0  0  0  0  0  0  0  0
    8.5901    2.5497    0.0000 C   0  0  0  0  0  0  0  0  0
    5.7318   -0.7503    0.0000 C   0  0  0  0  0  0  0  0  0
    6.4458   -1.1637    0.0000 O   0  0  0  0  0  0  0  0  0
    5.0168   -1.1620    0.0000 N   0  0  0  0  0  0  0  0  0
    5.0159   -1.9870    0.0000 C   0  0  0  0  0  0  0  0  0
    5.1864   -2.7941    0.0000 O   0  0  0  0  0  0  0  0  0
    4.4715   -3.2058    0.0000 C   0  0  0  0  0  0  0  0  0
    5.1383   -3.6915    0.0000 O   0  0  0  0  0  0  0  0  0
    3.8590   -2.6530    0.0000 N   0  0  0  0  0  0  0  0  0
    3.0741   -2.9070    0.0000 C   0  0  0  0  0  0  0  0  0
    2.4617   -2.3543    0.0000 C   0  0  0  0  0  0  0  0  0
    1.6767   -2.6083    0.0000 C   0  0  0  0  0  0  0  0  0
    1.0643   -2.0555    0.0000 C   0  0  0  0  0  0  0  0  0
    1.5042   -3.4150    0.0000 C   0  0  0  0  0  0  0  0  0
    2.9016   -3.7138    0.0000 C   0  0  0  0  0  0  0  0  0
    2.1167   -3.9678    0.0000 O   0  0  0  0  0  0  0  0  0
    3.5140   -4.2665    0.0000 N   0  0  0  0  0  0  0  0  0
    4.2990   -4.0125    0.0000 C   0  0  0  0  0  0  0  0  0
    4.7831   -4.6806    0.0000 C   0  0  0  0  0  0  0  0  0
    4.2974   -5.3474    0.0000 C   0  0  0  0  0  0  0  0  0
    3.5131   -5.0915    0.0000 C   0  0  0  0  0  0  0  0  0
    4.1955   -1.8997    0.0000 C   0  0  0  0  0  0  0  0  0
    3.7838   -1.1848    0.0000 O   0  0  0  0  0  0  0  0  0
    5.8364   -1.9017    0.0000 C   0  0  0  0  0  0  0  0  0
    6.5514   -1.4901    0.0000 C   0  0  0  0  0  0  0  0  0
    6.3206   -2.5697    0.0000 C   0  0  0  0  0  0  0  0  0
    4.3058    1.7264    0.0000 C   0  0  0  0  0  0  0  0  0
  1  2  1  0  0  0  0
  2  3  4  0  0  0  0
  2  6  4  0  0  0  0
  3  4  4  0  0  0  0
  4  5  4  0  0  0  0
  4 17  4  0  0  0  0
  5  6  4  0  0  0  0
  5 14  4  0  0  0  0
  6  7  1  0  0  0  0
  7  8  1  0  0  0  0
  8  9  1  0  0  0  0
  8 13  1  0  0  0  0
  9 10  1  0  0  0  0
  9 43  1  0  0  0  0
 10 11  1  0  0  0  0
 11 12  1  0  0  0  0
 11 18  1  0  0  0  0
 12 13  2  0  0  0  0
 13 14  1  0  0  0  0
 14 15  4  0  0  0  0
 15 16  4  0  0  0  0
 16 17  4  0  0  0  0
 18 19  2  0  0  0  0
 18 20  1  0  0  0  0
 20 21  1  0  0  0  0
 21 22  1  0  0  0  0
 21 38  1  0  0  0  0
 21 40  1  0  0  0  0
 22 23  1  0  0  0  0
 23 24  1  0  0  0  0
 23 25  1  0  0  0  0
 23 34  1  0  0  0  0
 25 26  1  0  0  0  0
 25 38  1  0  0  0  0
 26 27  1  0  0  0  0
 26 31  1  0  0  0  0
 27 28  1  0  0  0  0
 28 29  1  0  0  0  0
 28 30  1  0  0  0  0
 31 32  2  0  0  0  0
 31 33  1  0  0  0  0
 33 34  1  0  0  0  0
 33 37  1  0  0  0  0
 34 35  1  0  0  0  0
 35 36  1  0  0  0  0
 36 37  1  0  0  0  0
 38 39  2  0  0  0  0
 40 41  1  0  0  0  0
 40 42  1  0  0  0  0
M  STY  1   1 DAT
M  SAL   1  1   3
M  SDT   1 MRV_IMPLICIT_H                                        
M  SDD   1     0.0000    0.0000    DR    ALL  0       0  
M  SED   1 IMPL_H1
M  END
>  <Name_Molregno>
BROMOCRIPTINE

>  <5-HT1A>
7.7

>  <5-HT1B>
6.45

>  <5-HT1D>
7.97

>  <5-HT2A>
6.97

>  <5-HT2C>
6.13

>  <5-HT6>
7.39

>  <Alpha-1A>
8.38

>  <Alpha-1B>
8.86

>  <Alpha-2A>
7.96

>  <Alpha-2B>
7.46

>  <Alpha-2C>
7.55

>  <Beta-1>
6.23

>  <Beta-2>
6.13

>  <DOPAMINE D1>
6

>  <DOPAMINE D2>
8.31

>  <DOPAMINE D3>
8.02

>  <DOPAMINE D4>
6.33

>  <DOPAMINE D5>
6.31

$$$$
BTS54505
  Marvin  02231216192D 0   1.00000     0.00000     0

 17 18  0  0  1  0  0  0  0  0999 V2000
    0.2345    2.4216    0.0000 Cl  0  0  0  0  0  0  0  0  0
    0.8179    1.8383    0.0000 C   0  0  0  0  0  0  0  0  0
    1.6147    2.0518    0.0000 C   0  0  0  0  0  0  0  0  0
    2.1981    1.4684    0.0000 C   0  0  0  0  0  0  0  0  0
    1.9846    0.6716    0.0000 C   0  0  0  0  0  0  0  0  0
    1.1877    0.4580    0.0000 C   0  0  0  0  0  0  0  0  0
    0.6043    1.0414    0.0000 C   0  0  0  0  0  0  0  0  0
    2.5679    0.0882    0.0000 C   0  0  0  0  0  0  0  0  0
    3.1513   -0.4952    0.0000 C   0  0  0  0  0  0  0  0  0
    2.5679   -1.0785    0.0000 C   0  0  0  0  0  0  0  0  0
    1.9846   -0.4952    0.0000 C   0  0  0  0  0  0  0  0  0
    3.1513    0.6716    0.0000 C   0  0  0  0  0  0  0  0  0
    3.9482    0.4580    0.0000 N   0  0  0  0  0  0  0  0  0
    2.9378    1.4684    0.0000 C   0  0  0  0  0  0  0  0  0
    3.5211    2.0518    0.0000 C   0  0  0  0  0  0  0  0  0
    3.3076    2.8487    0.0000 C   0  0  0  0  0  0  0  0  0
    4.3180    1.8383    0.0000 C   0  0  0  0  0  0  0  0  0
  1  2  1  0  0  0  0
  2  3  4  0  0  0  0
  2  7  4  0  0  0  0
  3  4  4  0  0  0  0
  4  5  4  0  0  0  0
  5  6  4  0  0  0  0
  5  8  1  0  0  0  0
  6  7  4  0  0  0  0
  8  9  1  0  0  0  0
  8 11  1  0  0  0  0
  8 12  1  0  0  0  0
  9 10  1  0  0  0  0
 10 11  1  0  0  0  0
 12 13  1  0  0  0  0
 12 14  1  0  0  0  0
 14 15  1  0  0  0  0
 15 16  1  0  0  0  0
 15 17  1  0  0  0  0
M  END
>  <Name_Molregno>
BTS54505

>  <5-HT2A>
5

>  <5-HT2C>
5

$$$$
BUSPIRONE
  Marvin  02231216192D 0   1.00000     0.00000     0

 28 31  0  0  0  0  0  0  0  0999 V2000
    0.7370   -0.1034    0.0000 O   0  0  0  0  0  0  0  0  0
    0.3245   -0.8179    0.0000 C   0  0  0  0  0  0  0  0  0
    0.7370   -1.5324    0.0000 N   0  0  0  0  0  0  0  0  0
    1.5620   -1.5324    0.0000 C   0  0  0  0  0  0  0  0  0
    1.9745   -0.8179    0.0000 C   0  0  0  0  0  0  0  0  0
    2.7995   -0.8179    0.0000 C   0  0  0  0  0  0  0  0  0
    3.2120   -0.1034    0.0000 C   0  0  0  0  0  0  0  0  0
    4.0370   -0.1034    0.0000 N   0  0  0  0  0  0  0  0  0
    4.4495    0.6111    0.0000 C   0  0  0  0  0  0  0  0  0
    5.2745    0.6111    0.0000 C   0  0  0  0  0  0  0  0  0
    5.6870   -0.1034    0.0000 N   0  0  0  0  0  0  0  0  0
    5.2745   -0.8179    0.0000 C   0  0  0  0  0  0  0  0  0
    4.4495   -0.8179    0.0000 C   0  0  0  0  0  0  0  0  0
    6.5120   -0.1034    0.0000 C   0  0  0  0  0  0  0  0  0
    6.9245    0.6111    0.0000 N   0  0  0  0  0  0  0  0  0
    7.7495    0.6111    0.0000 C   0  0  0  0  0  0  0  0  0
    8.1620   -0.1034    0.0000 C   0  0  0  0  0  0  0  0  0
    7.7495   -0.8179    0.0000 C   0  0  0  0  0  0  0  0  0
    6.9245   -0.8179    0.0000 N   0  0  0  0  0  0  0  0  0
    0.3245   -2.2468    0.0000 C   0  0  0  0  0  0  0  0  0
    0.7370   -2.9613    0.0000 O   0  0  0  0  0  0  0  0  0
   -0.5005   -2.2468    0.0000 C   0  0  0  0  0  0  0  0  0
   -0.9130   -1.5324    0.0000 C   0  0  0  0  0  0  0  0  0
   -0.5005   -0.8179    0.0000 C   0  0  0  0  0  0  0  0  0
   -1.3979   -2.1998    0.0000 C   0  0  0  0  0  0  0  0  0
   -2.1825   -1.9449    0.0000 C   0  0  0  0  0  0  0  0  0
   -2.1825   -1.1199    0.0000 C   0  0  0  0  0  0  0  0  0
   -1.3979   -0.8649    0.0000 C   0  0  0  0  0  0  0  0  0
  1  2  2  0  0  0  0
  2  3  1  0  0  0  0
  2 24  1  0  0  0  0
  3  4  1  0  0  0  0
  3 20  1  0  0  0  0
  4  5  1  0  0  0  0
  5  6  1  0  0  0  0
  6  7  1  0  0  0  0
  7  8  1  0  0  0  0
  8  9  1  0  0  0  0
  8 13  1  0  0  0  0
  9 10  1  0  0  0  0
 10 11  1  0  0  0  0
 11 12  1  0  0  0  0
 11 14  1  0  0  0  0
 12 13  1  0  0  0  0
 14 15  4  0  0  0  0
 14 19  4  0  0  0  0
 15 16  4  0  0  0  0
 16 17  4  0  0  0  0
 17 18  4  0  0  0  0
 18 19  4  0  0  0  0
 20 21  2  0  0  0  0
 20 22  1  0  0  0  0
 22 23  1  0  0  0  0
 23 24  1  0  0  0  0
 23 25  1  0  0  0  0
 23 28  1  0  0  0  0
 25 26  1  0  0  0  0
 26 27  1  0  0  0  0
 27 28  1  0  0  0  0
M  END
>  <Name_Molregno>
BUSPIRONE

>  <5-HT1A>
7.57

>  <5-HT1D>
5

>  <5-HT2A>
6.86

>  <5-HT2C>
6.31

>  <DOPAMINE D2>
7.89

>  <DOPAMINE D4>
6.99

$$$$
BW-723C86
  Marvin  02231216192D 0   1.00000     0.00000     0

 20 22  0  0  1  0  0  0  0  0999 V2000
    5.9230   -0.7378    0.0000 S   0  0  0  0  0  0  0  0  0
    6.4751   -1.3509    0.0000 C   0  0  0  0  0  0  0  0  0
    6.0626   -2.0654    0.0000 C   0  0  0  0  0  0  0  0  0
    5.2556   -1.8938    0.0000 C   0  0  0  0  0  0  0  0  0
    5.1694   -1.0734    0.0000 C   0  0  0  0  0  0  0  0  0
    4.4549   -0.6609    0.0000 C   0  0  0  0  0  0  0  0  0
    3.7404   -1.0734    0.0000 O   0  0  0  0  0  0  0  0  0
    3.0259   -0.6609    0.0000 C   0  0  0  0  0  0  0  0  0
    2.3115   -1.0734    0.0000 C   0  0  0  0  0  0  0  0  0
    1.5970   -0.6609    0.0000 C   0  0  0  0  0  0  0  0  0
    1.5970    0.1641    0.0000 C   0  0  0  0  0  0  0  0  0
    0.8124    0.4191    0.0000 N   0  0  0  0  0  0  0  0  0
    0.3275   -0.2484    0.0000 C   0  0  0  0  0  0  0  0  0
    0.8124   -0.9158    0.0000 C   0  0  0  0  0  0  0  0  0
    0.5574   -1.7004    0.0000 C   0  0  0  0  0  0  0  0  0
   -0.2495   -1.8720    0.0000 C   0  0  0  0  0  0  0  0  0
   -0.5045   -2.6566    0.0000 N   0  0  0  0  0  0  0  0  0
   -0.8016   -1.2589    0.0000 C   0  0  0  0  0  0  0  0  0
    2.3115    0.5766    0.0000 C   0  0  0  0  0  0  0  0  0
    3.0259    0.1641    0.0000 C   0  0  0  0  0  0  0  0  0
  1  2  4  0  0  0  0
  1  5  4  0  0  0  0
  2  3  4  0  0  0  0
  3  4  4  0  0  0  0
  4  5  4  0  0  0  0
  5  6  1  0  0  0  0
  6  7  1  0  0  0  0
  7  8  1  0  0  0  0
  8  9  4  0  0  0  0
  8 20  4  0  0  0  0
  9 10  4  0  0  0  0
 10 11  4  0  0  0  0
 10 14  4  0  0  0  0
 11 12  4  0  0  0  0
 11 19  4  0  0  0  0
 12 13  4  0  0  0  0
 13 14  4  0  0  0  0
 14 15  1  0  0  0  0
 15 16  1  0  0  0  0
 16 17  1  0  0  0  0
 16 18  1  0  0  0  0
 19 20  4  0  0  0  0
M  STY  1   1 DAT
M  SAL   1  1  12
M  SDT   1 MRV_IMPLICIT_H                                        
M  SDD   1     0.0000    0.0000    DR    ALL  0       0  
M  SED   1 IMPL_H1
M  END
>  <Name_Molregno>
BW-723C86

>  <5-HT1B>
6.9

>  <5-HT1D>
6.33

>  <5-HT1E>
5.5

>  <5-HT2A>
6.99

>  <5-HT2C>
6.64

>  <5-HT6>
6.4

>  <5-HT7>
5.5

>  <DOPAMINE D4>
5

$$$$
Cabergoline
  Marvin  02231216192D 0   1.00000     0.00000     0

 33 36  0  0  1  0  0  0  0  0999 V2000
    0.1488   -3.1643    0.0000 O   0  0  0  0  0  0  0  0  0
   -0.5651   -2.7509    0.0000 C   0  0  0  0  0  0  0  0  0
   -1.2801   -3.1625    0.0000 N   0  0  0  0  0  0  0  0  0
   -1.2811   -3.9875    0.0000 C   0  0  0  0  0  0  0  0  0
   -1.9961   -4.3992    0.0000 C   0  0  0  0  0  0  0  0  0
   -1.9970   -5.2242    0.0000 C   0  0  0  0  0  0  0  0  0
   -2.7120   -5.6358    0.0000 N   0  0  0  0  0  0  0  0  0
   -2.7130   -6.4608    0.0000 C   0  0  0  0  0  0  0  0  0
   -3.4260   -5.2225    0.0000 C   0  0  0  0  0  0  0  0  0
   -1.9941   -2.7492    0.0000 C   0  0  0  0  0  0  0  0  0
   -2.7090   -3.1608    0.0000 O   0  0  0  0  0  0  0  0  0
   -1.9931   -1.9242    0.0000 N   0  0  0  0  0  0  0  0  0
   -2.7071   -1.5108    0.0000 C   0  0  0  0  0  0  0  0  0
   -3.4220   -1.9225    0.0000 C   0  0  0  0  0  0  0  0  0
   -0.5641   -1.9259    0.0000 C   0  0  0  0  0  0  0  0  0
    0.1508   -1.5143    0.0000 C   0  0  0  0  0  0  0  0  0
    0.1518   -0.6893    0.0000 C   0  0  0  0  0  0  0  0  0
   -0.5622   -0.2759    0.0000 C   0  0  0  0  0  0  0  0  0
   -1.2771   -0.6875    0.0000 N   0  0  0  0  0  0  0  0  0
   -1.2781   -1.5125    0.0000 C   0  0  0  0  0  0  0  0  0
   -1.9911   -0.2742    0.0000 C   0  0  0  0  0  0  0  0  0
   -2.7061   -0.6858    0.0000 C   0  0  0  0  0  0  0  0  0
   -3.4201   -0.2725    0.0000 C   0  0  0  0  0  0  0  0  0
   -0.5607    0.5482    0.0000 C   0  0  0  0  0  0  0  0  0
    0.1518    0.9607    0.0000 C   0  0  0  0  0  0  0  0  0
    0.8643    0.5482    0.0000 C   0  0  0  0  0  0  0  0  0
    0.8643   -0.2768    0.0000 C   0  0  0  0  0  0  0  0  0
    1.5822   -0.6893    0.0000 C   0  0  0  0  0  0  0  0  0
    2.2947   -0.2768    0.0000 C   0  0  0  0  0  0  0  0  0
    2.2947    0.5482    0.0000 C   0  0  0  0  0  0  0  0  0
    1.5822    0.9607    0.0000 C   0  0  0  0  0  0  0  0  0
    1.2768    1.8179    0.0000 N   0  0  0  0  0  0  0  0  0
    0.4518    1.8179    0.0000 C   0  0  0  0  0  0  0  0  0
  1  2  2  0  0  0  0
  2  3  1  0  0  0  0
  2 15  1  0  0  0  0
  3  4  1  0  0  0  0
  3 10  1  0  0  0  0
  4  5  1  0  0  0  0
  5  6  1  0  0  0  0
  6  7  1  0  0  0  0
  7  8  1  0  0  0  0
  7  9  1  0  0  0  0
 10 11  2  0  0  0  0
 10 12  1  0  0  0  0
 12 13  1  0  0  0  0
 13 14  1  0  0  0  0
 15 16  1  0  0  0  0
 15 20  1  0  0  0  0
 16 17  1  0  0  0  0
 17 18  1  0  0  0  0
 17 27  1  0  0  0  0
 18 19  1  0  0  0  0
 18 24  1  0  0  0  0
 19 20  1  0  0  0  0
 19 21  1  0  0  0  0
 21 22  1  0  0  0  0
 22 23  2  0  0  0  0
 24 25  1  0  0  0  0
 25 26  4  0  0  0  0
 25 33  4  0  0  0  0
 26 27  4  0  0  0  0
 26 31  4  0  0  0  0
 27 28  4  0  0  0  0
 28 29  4  0  0  0  0
 29 30  4  0  0  0  0
 30 31  4  0  0  0  0
 31 32  4  0  0  0  0
 32 33  4  0  0  0  0
M  STY  1   1 DAT
M  SAL   1  1  32
M  SDT   1 MRV_IMPLICIT_H                                        
M  SDD   1     0.0000    0.0000    DR    ALL  0       0  
M  SED   1 IMPL_H1
M  END
>  <Name_Molregno>
Cabergoline

>  <5-HT1A>
7.7

>  <5-HT1B>
6.32

>  <5-HT1D>
8.06

>  <5-HT2A>
8.21

>  <5-HT2C>
6.16

>  <Alpha-1A>
6.54

>  <Alpha-1B>
7.22

>  <Alpha-2A>
7.92

>  <Alpha-2B>
7.14

>  <Alpha-2C>
7.65

>  <Beta-1>
5

>  <Beta-2>
5

>  <DOPAMINE D1>
6.67

>  <DOPAMINE D2>
9.12

>  <DOPAMINE D3>
9.1

>  <DOPAMINE D4>
7.25

>  <DOPAMINE D5>
7.65

$$$$
CARBACHOL
  Marvin  02231216192D 0   1.00000     0.00000     0

 10  9  0  0  0  0  0  0  0  0999 V2000
    1.6924    0.8143    0.0000 O   0  0  0  0  0  0  0  0  0
    0.9780    0.4018    0.0000 C   0  0  0  0  0  0  0  0  0
    0.2635    0.8143    0.0000 C   0  0  0  0  0  0  0  0  0
   -0.4510    0.4018    0.0000 N   0  3  0  0  0  0  0  0  0
   -1.1654   -0.0107    0.0000 C   0  0  0  0  0  0  0  0  0
   -0.0385   -0.3127    0.0000 C   0  0  0  0  0  0  0  0  0
   -0.8635    1.1163    0.0000 C   0  0  0  0  0  0  0  0  0
    2.4069    0.4018    0.0000 C   0  0  0  0  0  0  0  0  0
    3.1214    0.8143    0.0000 O   0  0  0  0  0  0  0  0  0
    2.4069   -0.4232    0.0000 N   0  0  0  0  0  0  0  0  0
  1  2  1  0  0  0  0
  1  8  1  0  0  0  0
  2  3  1  0  0  0  0
  3  4  1  0  0  0  0
  4  5  1  0  0  0  0
  4  6  1  0  0  0  0
  4  7  1  0  0  0  0
  8  9  2  0  0  0  0
  8 10  1  0  0  0  0
M  CHG  1   4   1
M  END
>  <Name_Molregno>
CARBACHOL

>  <5-HT2A>
5

>  <Muscarinic acetylcholine receptor M1>
5.36

>  <Muscarinic acetylcholine receptor M2>
6.57

>  <Muscarinic acetylcholine receptor M3>
5.05

>  <Muscarinic acetylcholine receptor M4>
5.99

>  <Muscarinic acetylcholine receptor M5>
4.89

$$$$
CELECOXIB
  Marvin  02231216192D 0   1.00000     0.00000     0

 26 28  0  0  0  0  0  0  0  0999 V2000
   -2.2304    2.3034    0.0000 S   0  0  0  0  0  0  0  0  0
   -2.2304    3.1284    0.0000 O   0  0  0  0  0  0  0  0  0
   -3.0554    2.3034    0.0000 O   0  0  0  0  0  0  0  0  0
   -1.4054    2.3034    0.0000 N   0  0  0  0  0  0  0  0  0
   -2.2304    1.4784    0.0000 C   0  0  0  0  0  0  0  0  0
   -1.5159    1.0659    0.0000 C   0  0  0  0  0  0  0  0  0
   -1.5159    0.2409    0.0000 C   0  0  0  0  0  0  0  0  0
   -2.2304   -0.1716    0.0000 C   0  0  0  0  0  0  0  0  0
   -2.2304   -0.9966    0.0000 N   0  0  0  0  0  0  0  0  0
   -1.5629   -1.4815    0.0000 N   0  0  0  0  0  0  0  0  0
   -1.8179   -2.2662    0.0000 C   0  0  0  0  0  0  0  0  0
   -2.6429   -2.2662    0.0000 C   0  0  0  0  0  0  0  0  0
   -2.8978   -1.4815    0.0000 C   0  0  0  0  0  0  0  0  0
   -3.6824   -1.2266    0.0000 C   0  0  0  0  0  0  0  0  0
   -4.2955   -1.7786    0.0000 C   0  0  0  0  0  0  0  0  0
   -5.0802   -1.5237    0.0000 C   0  0  0  0  0  0  0  0  0
   -5.2517   -0.7167    0.0000 C   0  0  0  0  0  0  0  0  0
   -4.6386   -0.1647    0.0000 C   0  0  0  0  0  0  0  0  0
   -3.8540   -0.4196    0.0000 C   0  0  0  0  0  0  0  0  0
   -6.0363   -0.4618    0.0000 C   0  0  0  0  0  0  0  0  0
   -1.3330   -2.9336    0.0000 C   0  0  0  0  0  0  0  0  0
   -0.8480   -3.6010    0.0000 F   0  0  0  0  0  0  0  0  0
   -2.0004   -3.4185    0.0000 F   0  0  0  0  0  0  0  0  0
   -0.6655   -2.4487    0.0000 F   0  0  0  0  0  0  0  0  0
   -2.9448    0.2409    0.0000 C   0  0  0  0  0  0  0  0  0
   -2.9448    1.0659    0.0000 C   0  0  0  0  0  0  0  0  0
  1  2  2  0  0  0  0
  1  3  2  0  0  0  0
  1  4  1  0  0  0  0
  1  5  1  0  0  0  0
  5  6  4  0  0  0  0
  5 26  4  0  0  0  0
  6  7  4  0  0  0  0
  7  8  4  0  0  0  0
  8  9  1  0  0  0  0
  8 25  4  0  0  0  0
  9 10  4  0  0  0  0
  9 13  4  0  0  0  0
 10 11  4  0  0  0  0
 11 12  4  0  0  0  0
 11 21  1  0  0  0  0
 12 13  4  0  0  0  0
 13 14  1  0  0  0  0
 14 15  4  0  0  0  0
 14 19  4  0  0  0  0
 15 16  4  0  0  0  0
 16 17  4  0  0  0  0
 17 18  4  0  0  0  0
 17 20  1  0  0  0  0
 18 19  4  0  0  0  0
 21 22  1  0  0  0  0
 21 23  1  0  0  0  0
 21 24  1  0  0  0  0
 25 26  4  0  0  0  0
M  END
>  <Name_Molregno>
CELECOXIB

>  <5-HT1A>
5

>  <5-HT1B>
5

>  <5-HT1D>
5

>  <5-HT1E>
5

>  <5-HT2A>
5

>  <5-HT3>
5

>  <5-HT6>
5

>  <5-HT7>
5

>  <Alpha-1A>
5

>  <Alpha-1B>
5

>  <Alpha-2A>
5

>  <Alpha-2B>
5

>  <Alpha-2C>
5

>  <DOPAMINE D1>
5

>  <DOPAMINE D2>
5

>  <DOPAMINE D4>
5

>  <DOPAMINE D5>
5

>  <Dopamine transporter>
6.18

>  <HISTAMINE H1>
5

>  <HISTAMINE H2>
5

>  <Muscarinic acetylcholine receptor M2>
5

>  <Muscarinic acetylcholine receptor M5>
5

>  <Norepinephrine transporter>
5

>  <Serotonin transporter>
5

$$$$
CGS12066B
  Marvin  02231216192D 0   1.00000     0.00000     0

 24 27  0  0  0  0  0  0  0  0999 V2000
   -0.9796   -3.3948    0.0000 F   0  0  0  0  0  0  0  0  0
   -0.1550   -3.4206    0.0000 C   0  0  0  0  0  0  0  0  0
   -0.1808   -4.2452    0.0000 F   0  0  0  0  0  0  0  0  0
   -0.1293   -2.5960    0.0000 F   0  0  0  0  0  0  0  0  0
    0.6696   -3.4463    0.0000 C   0  0  0  0  0  0  0  0  0
    1.1042   -2.7451    0.0000 C   0  0  0  0  0  0  0  0  0
    1.9288   -2.7708    0.0000 C   0  0  0  0  0  0  0  0  0
    2.3634   -2.0696    0.0000 N   0  0  0  0  0  0  0  0  0
    3.1880   -2.0954    0.0000 C   0  0  0  0  0  0  0  0  0
    3.6226   -1.3941    0.0000 N   0  0  0  0  0  0  0  0  0
    3.2326   -0.6671    0.0000 C   0  0  0  0  0  0  0  0  0
    3.6672    0.0341    0.0000 C   0  0  0  0  0  0  0  0  0
    4.4918    0.0084    0.0000 N   0  0  0  0  0  0  0  0  0
    4.8818   -0.7186    0.0000 C   0  0  0  0  0  0  0  0  0
    4.4472   -1.4199    0.0000 C   0  0  0  0  0  0  0  0  0
    4.9264    0.7096    0.0000 C   0  0  0  0  0  0  0  0  0
    3.5780   -2.8224    0.0000 C   0  0  0  0  0  0  0  0  0
    3.1434   -3.5236    0.0000 N   0  0  0  0  0  0  0  0  0
    2.3188   -3.4979    0.0000 C   0  0  0  0  0  0  0  0  0
    1.8842   -4.1991    0.0000 C   0  0  0  0  0  0  0  0  0
    1.0596   -4.1733    0.0000 C   0  0  0  0  0  0  0  0  0
    3.6760   -4.1536    0.0000 C   0  0  0  0  0  0  0  0  0
    4.4398   -3.8418    0.0000 C   0  0  0  0  0  0  0  0  0
    4.3792   -3.0190    0.0000 C   0  0  0  0  0  0  0  0  0
  1  2  1  0  0  0  0
  2  3  1  0  0  0  0
  2  4  1  0  0  0  0
  2  5  1  0  0  0  0
  5  6  4  0  0  0  0
  5 21  4  0  0  0  0
  6  7  4  0  0  0  0
  7  8  4  0  0  0  0
  7 19  4  0  0  0  0
  8  9  4  0  0  0  0
  9 10  1  0  0  0  0
  9 17  4  0  0  0  0
 10 11  1  0  0  0  0
 10 15  1  0  0  0  0
 11 12  1  0  0  0  0
 12 13  1  0  0  0  0
 13 14  1  0  0  0  0
 13 16  1  0  0  0  0
 14 15  1  0  0  0  0
 17 18  4  0  0  0  0
 17 24  4  0  0  0  0
 18 19  4  0  0  0  0
 18 22  4  0  0  0  0
 19 20  4  0  0  0  0
 20 21  4  0  0  0  0
 22 23  4  0  0  0  0
 23 24  4  0  0  0  0
M  END
>  <Name_Molregno>
CGS12066B

>  <5-HT1A>
7.36

>  <5-HT1B>
9.2

>  <5-HT1D>
8.59

>  <5-HT2A>
5.37

>  <5-HT2C>
5.6

>  <DOPAMINE D1>
5.82

>  <DOPAMINE D2>
5.76

>  <DOPAMINE D3>
6.24

$$$$
CHLORIMIPRAMINE
  Marvin  02231216192D 0   1.00000     0.00000     0

 22 24  0  0  0  0  0  0  0  0999 V2000
   -3.6433    1.4834    0.0000 Cl  0  0  0  0  0  0  0  0  0
   -3.8269    0.6791    0.0000 C   0  0  0  0  0  0  0  0  0
   -3.2221    0.1179    0.0000 C   0  0  0  0  0  0  0  0  0
   -3.4057   -0.6864    0.0000 C   0  0  0  0  0  0  0  0  0
   -2.7241   -1.1511    0.0000 N   0  0  0  0  0  0  0  0  0
   -2.6624   -1.9738    0.0000 C   0  0  0  0  0  0  0  0  0
   -3.2672   -2.5350    0.0000 C   0  0  0  0  0  0  0  0  0
   -4.0830   -2.4120    0.0000 C   0  0  0  0  0  0  0  0  0
   -4.4955   -1.6975    0.0000 C   0  0  0  0  0  0  0  0  0
   -4.1941   -0.9296    0.0000 C   0  0  0  0  0  0  0  0  0
   -4.7988   -0.3684    0.0000 C   0  0  0  0  0  0  0  0  0
   -4.6153    0.4359    0.0000 C   0  0  0  0  0  0  0  0  0
   -3.0836   -3.3393    0.0000 C   0  0  0  0  0  0  0  0  0
   -2.2953   -3.5825    0.0000 C   0  0  0  0  0  0  0  0  0
   -1.6905   -3.0213    0.0000 C   0  0  0  0  0  0  0  0  0
   -1.8741   -2.2170    0.0000 C   0  0  0  0  0  0  0  0  0
   -2.0096   -0.7386    0.0000 C   0  0  0  0  0  0  0  0  0
   -1.2951   -1.1511    0.0000 C   0  0  0  0  0  0  0  0  0
   -0.5807   -0.7386    0.0000 C   0  0  0  0  0  0  0  0  0
    0.1338   -1.1511    0.0000 N   0  0  0  0  0  0  0  0  0
    0.8483   -0.7386    0.0000 C   0  0  0  0  0  0  0  0  0
    0.1338   -1.9761    0.0000 C   0  0  0  0  0  0  0  0  0
  1  2  1  0  0  0  0
  2  3  4  0  0  0  0
  2 12  4  0  0  0  0
  3  4  4  0  0  0  0
  4  5  1  0  0  0  0
  4 10  4  0  0  0  0
  5  6  1  0  0  0  0
  5 17  1  0  0  0  0
  6  7  4  0  0  0  0
  6 16  4  0  0  0  0
  7  8  1  0  0  0  0
  7 13  4  0  0  0  0
  8  9  1  0  0  0  0
  9 10  1  0  0  0  0
 10 11  4  0  0  0  0
 11 12  4  0  0  0  0
 13 14  4  0  0  0  0
 14 15  4  0  0  0  0
 15 16  4  0  0  0  0
 17 18  1  0  0  0  0
 18 19  1  0  0  0  0
 19 20  1  0  0  0  0
 20 21  1  0  0  0  0
 20 22  1  0  0  0  0
M  END
>  <Name_Molregno>
CHLORIMIPRAMINE

>  <5-HT1A>
5

>  <5-HT1B>
5

>  <5-HT1D>
5

>  <5-HT2A>
7.45

>  <5-HT2C>
7.19

>  <Alpha-1A>
8.49

>  <Alpha-2A>
6.28

>  <DOPAMINE D1>
6.66

>  <DOPAMINE D2>
6.95

>  <DOPAMINE D3>
7.41

>  <Dopamine transporter>
5.61

>  <Norepinephrine transporter>
7.37

>  <Serotonin transporter>
9.81

$$$$
CHLOROPHENYLPIPERAZINE
  Marvin  02231216192D 0   1.00000     0.00000     0

 13 14  0  0  0  0  0  0  0  0999 V2000
    1.2605    1.9269    0.0000 Cl  0  0  0  0  0  0  0  0  0
    1.2605    1.1019    0.0000 C   0  0  0  0  0  0  0  0  0
    1.9750    0.6894    0.0000 C   0  0  0  0  0  0  0  0  0
    1.9750   -0.1356    0.0000 C   0  0  0  0  0  0  0  0  0
    2.6894   -0.5481    0.0000 N   0  0  0  0  0  0  0  0  0
    3.4039   -0.1356    0.0000 C   0  0  0  0  0  0  0  0  0
    4.1184   -0.5481    0.0000 C   0  0  0  0  0  0  0  0  0
    4.1184   -1.3731    0.0000 N   0  0  0  0  0  0  0  0  0
    3.4039   -1.7856    0.0000 C   0  0  0  0  0  0  0  0  0
    2.6894   -1.3731    0.0000 C   0  0  0  0  0  0  0  0  0
    1.2605   -0.5481    0.0000 C   0  0  0  0  0  0  0  0  0
    0.5460   -0.1356    0.0000 C   0  0  0  0  0  0  0  0  0
    0.5460    0.6894    0.0000 C   0  0  0  0  0  0  0  0  0
  1  2  1  0  0  0  0
  2  3  4  0  0  0  0
  2 13  4  0  0  0  0
  3  4  4  0  0  0  0
  4  5  1  0  0  0  0
  4 11  4  0  0  0  0
  5  6  1  0  0  0  0
  5 10  1  0  0  0  0
  6  7  1  0  0  0  0
  7  8  1  0  0  0  0
  8  9  1  0  0  0  0
  9 10  1  0  0  0  0
 11 12  4  0  0  0  0
 12 13  4  0  0  0  0
M  END
>  <Name_Molregno>
CHLOROPHENYLPIPERAZINE

>  <5-HT1A>
6.88

>  <5-HT1B>
6.72

>  <5-HT1D>
6.23

>  <5-HT2A>
7.01

>  <5-HT2C>
7.55

>  <5-HT3>
6.37

>  <5-HT5>
5.87

>  <5-HT6>
5.7

>  <5-HT7>
6.79

>  <Alpha-1A>
5.86

>  <Alpha-1B>
6.04

>  <Alpha-2A>
6.84

>  <Alpha-2B>
6.98

>  <Alpha-2C>
6.91

>  <Beta-1>
5.63

>  <Beta-2>
5.46

>  <DOPAMINE D1>
5.15

>  <DOPAMINE D2>
5

>  <DOPAMINE D5>
5

>  <HISTAMINE H1>
6.49

>  <Norepinephrine transporter>
5.36

>  <Serotonin transporter>
6.13

$$$$
CHLORPROMAZINE
  Marvin  02231216192D 0   1.00000     0.00000     0

 21 23  0  0  0  0  0  0  0  0999 V2000
   -1.3730   -3.5598    0.0000 Cl  0  0  0  0  0  0  0  0  0
   -2.0875   -3.1473    0.0000 C   0  0  0  0  0  0  0  0  0
   -2.0875   -2.3223    0.0000 C   0  0  0  0  0  0  0  0  0
   -2.8019   -1.9098    0.0000 C   0  0  0  0  0  0  0  0  0
   -2.8019   -1.0848    0.0000 N   0  0  0  0  0  0  0  0  0
   -3.5164   -0.6723    0.0000 C   0  0  0  0  0  0  0  0  0
   -4.2309   -1.0848    0.0000 C   0  0  0  0  0  0  0  0  0
   -4.2309   -1.9098    0.0000 S   0  0  0  0  0  0  0  0  0
   -3.5164   -2.3223    0.0000 C   0  0  0  0  0  0  0  0  0
   -3.5164   -3.1473    0.0000 C   0  0  0  0  0  0  0  0  0
   -2.8019   -3.5598    0.0000 C   0  0  0  0  0  0  0  0  0
   -4.9453   -0.6723    0.0000 C   0  0  0  0  0  0  0  0  0
   -4.9453    0.1527    0.0000 C   0  0  0  0  0  0  0  0  0
   -4.2309    0.5652    0.0000 C   0  0  0  0  0  0  0  0  0
   -3.5164    0.1527    0.0000 C   0  0  0  0  0  0  0  0  0
   -2.0875   -0.6723    0.0000 C   0  0  0  0  0  0  0  0  0
   -1.3730   -1.0848    0.0000 C   0  0  0  0  0  0  0  0  0
   -0.6585   -0.6723    0.0000 C   0  0  0  0  0  0  0  0  0
    0.0560   -1.0848    0.0000 N   0  0  0  0  0  0  0  0  0
    0.7704   -0.6723    0.0000 C   0  0  0  0  0  0  0  0  0
    0.0560   -1.9098    0.0000 C   0  0  0  0  0  0  0  0  0
  1  2  1  0  0  0  0
  2  3  4  0  0  0  0
  2 11  4  0  0  0  0
  3  4  4  0  0  0  0
  4  5  1  0  0  0  0
  4  9  4  0  0  0  0
  5  6  1  0  0  0  0
  5 16  1  0  0  0  0
  6  7  4  0  0  0  0
  6 15  4  0  0  0  0
  7  8  1  0  0  0  0
  7 12  4  0  0  0  0
  8  9  1  0  0  0  0
  9 10  4  0  0  0  0
 10 11  4  0  0  0  0
 12 13  4  0  0  0  0
 13 14  4  0  0  0  0
 14 15  4  0  0  0  0
 16 17  1  0  0  0  0
 17 18  1  0  0  0  0
 18 19  1  0  0  0  0
 19 20  1  0  0  0  0
 19 21  1  0  0  0  0
M  END
>  <Name_Molregno>
CHLORPROMAZINE

>  <5-HT1A>
5.98

>  <5-HT1B>
5.83

>  <5-HT1D>
6.34

>  <5-HT1E>
6.46

>  <5-HT2A>
8.36

>  <5-HT2C>
7.74

>  <5-HT3>
6.01

>  <5-HT5>
6.93

>  <5-HT6>
7.59

>  <5-HT7>
7.54

>  <Alpha-1A>
9.55

>  <Alpha-1B>
9.09

>  <Alpha-2A>
6.71

>  <Alpha-2B>
7.81

>  <Alpha-2C>
7.36

>  <Beta-1>
5

>  <Beta-2>
5

>  <DOPAMINE D1>
7.1

>  <DOPAMINE D2>
8.51

>  <DOPAMINE D3>
8.58

>  <DOPAMINE D4>
8.03

>  <DOPAMINE D5>
6.82

>  <Dopamine transporter>
5

>  <HISTAMINE H1>
8.47

>  <HISTAMINE H2>
6.76

>  <HISTAMINE H3>
6

>  <HISTAMINE H4>
6.3

>  <Muscarinic acetylcholine receptor M1>
7.36

>  <Muscarinic acetylcholine receptor M2>
6.67

>  <Muscarinic acetylcholine receptor M3>
7.25

>  <Muscarinic acetylcholine receptor M4>
7.11

>  <Muscarinic acetylcholine receptor M5>
7.5

>  <Norepinephrine transporter>
5.61

>  <Serotonin transporter>
6.54

$$$$
CHLORPROTHIXENE
  Marvin  02231216192D 0   1.00000     0.00000     0

 21 23  0  0  0  0  0  0  0  0999 V2000
    5.5918   -1.4384    0.0000 Cl  0  0  0  0  0  0  0  0  0
    4.8773   -1.0259    0.0000 C   0  0  0  0  0  0  0  0  0
    4.1628   -1.4384    0.0000 C   0  0  0  0  0  0  0  0  0
    3.4484   -1.0259    0.0000 C   0  0  0  0  0  0  0  0  0
    3.4484   -0.2009    0.0000 C   0  0  0  0  0  0  0  0  0
    2.7339    0.2116    0.0000 S   0  0  0  0  0  0  0  0  0
    2.0194   -0.2009    0.0000 C   0  0  0  0  0  0  0  0  0
    2.0194   -1.0259    0.0000 C   0  0  0  0  0  0  0  0  0
    1.3049   -1.4384    0.0000 C   0  0  0  0  0  0  0  0  0
    0.5905   -1.0259    0.0000 C   0  0  0  0  0  0  0  0  0
    0.5905   -0.2009    0.0000 C   0  0  0  0  0  0  0  0  0
    1.3049    0.2116    0.0000 C   0  0  0  0  0  0  0  0  0
    2.7339   -1.4384    0.0000 C   0  0  0  0  0  0  0  0  0
    2.7339   -2.2634    0.0000 C   0  0  0  0  0  0  0  0  0
    2.0194   -2.6759    0.0000 C   0  0  0  0  0  0  0  0  0
    2.0194   -3.5009    0.0000 C   0  0  0  0  0  0  0  0  0
    1.3049   -3.9134    0.0000 N   0  0  0  0  0  0  0  0  0
    1.3049   -4.7384    0.0000 C   0  0  0  0  0  0  0  0  0
    0.5905   -3.5009    0.0000 C   0  0  0  0  0  0  0  0  0
    4.1628    0.2116    0.0000 C   0  0  0  0  0  0  0  0  0
    4.8773   -0.2009    0.0000 C   0  0  0  0  0  0  0  0  0
  1  2  1  0  0  0  0
  2  3  4  0  0  0  0
  2 21  4  0  0  0  0
  3  4  4  0  0  0  0
  4  5  4  0  0  0  0
  4 13  1  0  0  0  0
  5  6  1  0  0  0  0
  5 20  4  0  0  0  0
  6  7  1  0  0  0  0
  7  8  4  0  0  0  0
  7 12  4  0  0  0  0
  8  9  4  0  0  0  0
  8 13  1  0  0  0  0
  9 10  4  0  0  0  0
 10 11  4  0  0  0  0
 11 12  4  0  0  0  0
 13 14  2  0  0  0  0
 14 15  1  0  0  0  0
 15 16  1  0  0  0  0
 16 17  1  0  0  0  0
 17 18  1  0  0  0  0
 17 19  1  0  0  0  0
 20 21  4  0  0  0  0
M  END
>  <Name_Molregno>
CHLORPROTHIXENE

>  <5-HT2A>
9.37

>  <DOPAMINE D1>
7.74

>  <DOPAMINE D2>
8.37

>  <DOPAMINE D3>
8.34

>  <DOPAMINE D4>
9.19

>  <DOPAMINE D5>
8.05

>  <HISTAMINE H1>
8.43

>  <HISTAMINE H3>
6

>  <Muscarinic acetylcholine receptor M1>
7.96

>  <Muscarinic acetylcholine receptor M2>
7.55

>  <Muscarinic acetylcholine receptor M3>
7.66

>  <Muscarinic acetylcholine receptor M4>
7.74

>  <Muscarinic acetylcholine receptor M5>
7.6

$$$$
CIMETIDINE
  Marvin  02231216192D 0   1.00000     0.00000     0

 17 17  0  0  0  0  0  0  0  0999 V2000
   -1.4925   -0.0975    0.0000 S   0  0  0  0  0  0  0  0  0
   -2.2070   -0.5100    0.0000 C   0  0  0  0  0  0  0  0  0
   -2.9215   -0.0975    0.0000 C   0  0  0  0  0  0  0  0  0
   -3.6752   -0.4331    0.0000 N   0  0  0  0  0  0  0  0  0
   -4.2272    0.1800    0.0000 C   0  0  0  0  0  0  0  0  0
   -3.8147    0.8945    0.0000 N   0  0  0  0  0  0  0  0  0
   -3.0077    0.7230    0.0000 C   0  0  0  0  0  0  0  0  0
   -2.3946    1.2750    0.0000 C   0  0  0  0  0  0  0  0  0
   -0.7781   -0.5100    0.0000 C   0  0  0  0  0  0  0  0  0
   -0.0636   -0.0975    0.0000 C   0  0  0  0  0  0  0  0  0
    0.6509   -0.5100    0.0000 N   0  0  0  0  0  0  0  0  0
    1.3653   -0.0975    0.0000 C   0  0  0  0  0  0  0  0  0
    1.3653    0.7275    0.0000 N   0  0  0  0  0  0  0  0  0
    2.0798    1.1400    0.0000 C   0  0  0  0  0  0  0  0  0
    2.0798   -0.5100    0.0000 N   0  0  0  0  0  0  0  0  0
    2.7943   -0.0975    0.0000 C   0  0  0  0  0  0  0  0  0
    3.5088    0.3150    0.0000 N   0  0  0  0  0  0  0  0  0
  1  2  1  0  0  0  0
  1  9  1  0  0  0  0
  2  3  1  0  0  0  0
  3  4  4  0  0  0  0
  3  7  4  0  0  0  0
  4  5  4  0  0  0  0
  5  6  4  0  0  0  0
  6  7  4  0  0  0  0
  7  8  1  0  0  0  0
  9 10  1  0  0  0  0
 10 11  1  0  0  0  0
 11 12  1  0  0  0  0
 12 13  2  0  0  0  0
 12 15  1  0  0  0  0
 13 14  1  0  0  0  0
 15 16  1  0  0  0  0
 16 17  3  0  0  0  0
M  STY  1   1 DAT
M  SAL   1  1   6
M  SDT   1 MRV_IMPLICIT_H                                        
M  SDD   1     0.0000    0.0000    DR    ALL  0       0  
M  SED   1 IMPL_H1
M  END
>  <Name_Molregno>
CIMETIDINE

>  <5-HT2A>
5.15

>  <HISTAMINE H1>
5

>  <HISTAMINE H3>
5

>  <HISTAMINE H4>
5

$$$$
CISAPRIDE
  Marvin  02231216192D 0   1.00000     0.00000     0

 32 34  0  0  1  0  0  0  0  0999 V2000
   -9.6407   -1.4953    0.0000 Cl  0  0  0  0  0  0  0  0  0
   -8.9262   -1.9078    0.0000 C   0  0  0  0  0  0  0  0  0
   -8.2117   -1.4953    0.0000 C   0  0  0  0  0  0  0  0  0
   -7.4973   -1.9078    0.0000 C   0  0  0  0  0  0  0  0  0
   -6.7828   -1.4953    0.0000 C   0  0  0  0  0  0  0  0  0
   -6.7828   -0.6703    0.0000 O   0  0  0  0  0  0  0  0  0
   -6.0683   -1.9078    0.0000 N   0  0  0  0  0  0  0  0  0
   -5.3539   -1.4953    0.0000 C   0  0  0  0  0  0  0  0  0
   -5.3539   -0.6703    0.0000 C   0  0  0  0  0  0  0  0  0
   -4.6394   -0.2578    0.0000 C   0  0  0  0  0  0  0  0  0
   -3.9249   -0.6703    0.0000 N   0  0  0  0  0  0  0  0  0
   -3.9249   -1.4953    0.0000 C   0  0  0  0  0  0  0  0  0
   -4.6394   -1.9078    0.0000 C   0  0  0  0  0  0  0  0  0
   -4.6394   -2.7328    0.0000 O   0  0  0  0  0  0  0  0  0
   -3.9249   -3.1453    0.0000 C   0  0  0  0  0  0  0  0  0
   -3.2105   -0.2578    0.0000 C   0  0  0  0  0  0  0  0  0
   -2.4960   -0.6703    0.0000 C   0  0  0  0  0  0  0  0  0
   -1.7815   -0.2578    0.0000 C   0  0  0  0  0  0  0  0  0
   -1.0670   -0.6703    0.0000 O   0  0  0  0  0  0  0  0  0
   -0.3526   -0.2578    0.0000 C   0  0  0  0  0  0  0  0  0
   -0.3526    0.5672    0.0000 C   0  0  0  0  0  0  0  0  0
    0.3619    0.9797    0.0000 C   0  0  0  0  0  0  0  0  0
    1.0764    0.5672    0.0000 C   0  0  0  0  0  0  0  0  0
    1.7908    0.9797    0.0000 F   0  0  0  0  0  0  0  0  0
    1.0764   -0.2578    0.0000 C   0  0  0  0  0  0  0  0  0
    0.3619   -0.6703    0.0000 C   0  0  0  0  0  0  0  0  0
   -7.4973   -2.7328    0.0000 C   0  0  0  0  0  0  0  0  0
   -6.7828   -3.1453    0.0000 O   0  0  0  0  0  0  0  0  0
   -6.7828   -3.9703    0.0000 C   0  0  0  0  0  0  0  0  0
   -8.2117   -3.1453    0.0000 C   0  0  0  0  0  0  0  0  0
   -8.9262   -2.7328    0.0000 C   0  0  0  0  0  0  0  0  0
   -9.6407   -3.1453    0.0000 N   0  0  0  0  0  0  0  0  0
  1  2  1  0  0  0  0
  2  3  4  0  0  0  0
  2 31  4  0  0  0  0
  3  4  4  0  0  0  0
  4  5  1  0  0  0  0
  4 27  4  0  0  0  0
  5  6  2  0  0  0  0
  5  7  1  0  0  0  0
  7  8  1  0  0  0  0
  8  9  1  0  0  0  0
  8 13  1  0  0  0  0
  9 10  1  0  0  0  0
 10 11  1  0  0  0  0
 11 12  1  0  0  0  0
 11 16  1  0  0  0  0
 12 13  1  0  0  0  0
 13 14  1  0  0  0  0
 14 15  1  0  0  0  0
 16 17  1  0  0  0  0
 17 18  1  0  0  0  0
 18 19  1  0  0  0  0
 19 20  1  0  0  0  0
 20 21  4  0  0  0  0
 20 26  4  0  0  0  0
 21 22  4  0  0  0  0
 22 23  4  0  0  0  0
 23 24  1  0  0  0  0
 23 25  4  0  0  0  0
 25 26  4  0  0  0  0
 27 28  1  0  0  0  0
 27 30  4  0  0  0  0
 28 29  1  0  0  0  0
 30 31  4  0  0  0  0
 31 32  1  0  0  0  0
M  END
>  <Name_Molregno>
CISAPRIDE

>  <5-HT2A>
7.99

>  <5-HT2C>
6.29

$$$$
cis-Thiothixene
  Marvin  02231216192D 0   1.00000     0.00000     0

 30 33  0  0  0  0  0  0  0  0999 V2000
    1.0940   -3.6931    0.0000 S   0  0  0  0  0  0  0  0  0
    1.8085   -3.2806    0.0000 C   0  0  0  0  0  0  0  0  0
    1.8085   -2.4556    0.0000 C   0  0  0  0  0  0  0  0  0
    2.5230   -2.0431    0.0000 C   0  0  0  0  0  0  0  0  0
    3.2375   -2.4556    0.0000 C   0  0  0  0  0  0  0  0  0
    3.9519   -2.0431    0.0000 S   0  0  0  0  0  0  0  0  0
    3.5394   -1.3286    0.0000 O   0  0  0  0  0  0  0  0  0
    4.3644   -2.7575    0.0000 O   0  0  0  0  0  0  0  0  0
    4.6664   -1.6306    0.0000 N   0  0  0  0  0  0  0  0  0
    5.3809   -2.0431    0.0000 C   0  0  0  0  0  0  0  0  0
    4.6664   -0.8056    0.0000 C   0  0  0  0  0  0  0  0  0
    3.2375   -3.2806    0.0000 C   0  0  0  0  0  0  0  0  0
    2.5230   -3.6931    0.0000 C   0  0  0  0  0  0  0  0  0
    1.0940   -2.0431    0.0000 C   0  0  0  0  0  0  0  0  0
    0.3796   -2.4556    0.0000 C   0  0  0  0  0  0  0  0  0
    0.3796   -3.2806    0.0000 C   0  0  0  0  0  0  0  0  0
   -0.3349   -3.6931    0.0000 C   0  0  0  0  0  0  0  0  0
   -1.0494   -3.2806    0.0000 C   0  0  0  0  0  0  0  0  0
   -1.0494   -2.4556    0.0000 C   0  0  0  0  0  0  0  0  0
   -0.3349   -2.0431    0.0000 C   0  0  0  0  0  0  0  0  0
    1.0940   -1.2181    0.0000 C   0  0  0  0  0  0  0  0  0
    0.3796   -0.8056    0.0000 C   0  0  0  0  0  0  0  0  0
   -0.3349   -1.2181    0.0000 C   0  0  0  0  0  0  0  0  0
   -1.0494   -0.8056    0.0000 N   0  0  0  0  0  0  0  0  0
   -1.7638   -1.2181    0.0000 C   0  0  0  0  0  0  0  0  0
   -2.4783   -0.8056    0.0000 C   0  0  0  0  0  0  0  0  0
   -2.4783    0.0194    0.0000 N   0  0  0  0  0  0  0  0  0
   -1.7638    0.4319    0.0000 C   0  0  0  0  0  0  0  0  0
   -1.0494    0.0194    0.0000 C   0  0  0  0  0  0  0  0  0
   -3.1928    0.4319    0.0000 C   0  0  0  0  0  0  0  0  0
  1  2  1  0  0  0  0
  1 16  1  0  0  0  0
  2  3  4  0  0  0  0
  2 13  4  0  0  0  0
  3  4  4  0  0  0  0
  3 14  1  0  0  0  0
  4  5  4  0  0  0  0
  5  6  1  0  0  0  0
  5 12  4  0  0  0  0
  6  7  2  0  0  0  0
  6  8  2  0  0  0  0
  6  9  1  0  0  0  0
  9 10  1  0  0  0  0
  9 11  1  0  0  0  0
 12 13  4  0  0  0  0
 14 15  1  0  0  0  0
 14 21  2  0  0  0  0
 15 16  4  0  0  0  0
 15 20  4  0  0  0  0
 16 17  4  0  0  0  0
 17 18  4  0  0  0  0
 18 19  4  0  0  0  0
 19 20  4  0  0  0  0
 21 22  1  0  0  0  0
 22 23  1  0  0  0  0
 23 24  1  0  0  0  0
 24 25  1  0  0  0  0
 24 29  1  0  0  0  0
 25 26  1  0  0  0  0
 26 27  1  0  0  0  0
 27 28  1  0  0  0  0
 27 30  1  0  0  0  0
 28 29  1  0  0  0  0
M  END
>  <Name_Molregno>
cis-Thiothixene

>  <5-HT1A>
6.39

>  <5-HT1B>
6.82

>  <5-HT1D>
6.18

>  <5-HT1E>
5

>  <5-HT2A>
7.42

>  <5-HT2C>
5.87

>  <5-HT3>
5.73

>  <5-HT5>
6.44

>  <5-HT6>
6.62

>  <5-HT7>
7.82

>  <Alpha-1A>
7.94

>  <Alpha-1B>
7.46

>  <Alpha-2A>
7.1

>  <Alpha-2B>
7.3

>  <Alpha-2C>
7.28

>  <Beta-1>
5

>  <Beta-2>
5

>  <DOPAMINE D1>
7.29

>  <DOPAMINE D2>
9.56

>  <DOPAMINE D3>
9.41

>  <DOPAMINE D4>
6.86

>  <DOPAMINE D5>
6.58

>  <Dopamine transporter>
5

>  <HISTAMINE H1>
8.23

>  <HISTAMINE H2>
6.39

>  <HISTAMINE H4>
5

>  <Muscarinic acetylcholine receptor M1>
5.3

>  <Muscarinic acetylcholine receptor M2>
5.34

>  <Muscarinic acetylcholine receptor M3>
5.27

>  <Muscarinic acetylcholine receptor M4>
5.4

>  <Muscarinic acetylcholine receptor M5>
5.32

>  <Norepinephrine transporter>
5

>  <Serotonin transporter>
5.41

$$$$
CITALOPRAM
  Marvin  02231216192D 0   1.00000     0.00000     0

 24 26  0  0  1  0  0  0  0  0999 V2000
   -2.6333   -5.3696    0.0000 F   0  0  0  0  0  0  0  0  0
   -2.2977   -4.6160    0.0000 C   0  0  0  0  0  0  0  0  0
   -2.7827   -3.9485    0.0000 C   0  0  0  0  0  0  0  0  0
   -2.4471   -3.1948    0.0000 C   0  0  0  0  0  0  0  0  0
   -1.6266   -3.1086    0.0000 C   0  0  0  0  0  0  0  0  0
   -1.1417   -3.7760    0.0000 C   0  0  0  0  0  0  0  0  0
   -1.4772   -4.5297    0.0000 C   0  0  0  0  0  0  0  0  0
   -1.2911   -2.3549    0.0000 C   0  0  0  0  0  0  0  0  0
   -0.8061   -1.6875    0.0000 O   0  0  0  0  0  0  0  0  0
   -1.2911   -1.0201    0.0000 C   0  0  0  0  0  0  0  0  0
   -2.0757   -1.2750    0.0000 C   0  0  0  0  0  0  0  0  0
   -2.0757   -2.1000    0.0000 C   0  0  0  0  0  0  0  0  0
   -2.7901   -2.5125    0.0000 C   0  0  0  0  0  0  0  0  0
   -3.5046   -2.1000    0.0000 C   0  0  0  0  0  0  0  0  0
   -3.5046   -1.2750    0.0000 C   0  0  0  0  0  0  0  0  0
   -2.7901   -0.8625    0.0000 C   0  0  0  0  0  0  0  0  0
   -4.2191   -0.8625    0.0000 C   0  0  0  0  0  0  0  0  0
   -4.9336   -0.4500    0.0000 N   0  0  0  0  0  0  0  0  0
   -0.5766   -2.7674    0.0000 C   0  0  0  0  0  0  0  0  0
    0.1379   -2.3549    0.0000 C   0  0  0  0  0  0  0  0  0
    0.8524   -2.7674    0.0000 C   0  0  0  0  0  0  0  0  0
    1.5668   -2.3549    0.0000 N   0  0  0  0  0  0  0  0  0
    1.5668   -1.5299    0.0000 C   0  0  0  0  0  0  0  0  0
    2.2813   -2.7674    0.0000 C   0  0  0  0  0  0  0  0  0
  1  2  1  0  0  0  0
  2  3  4  0  0  0  0
  2  7  4  0  0  0  0
  3  4  4  0  0  0  0
  4  5  4  0  0  0  0
  5  6  4  0  0  0  0
  5  8  1  0  0  0  0
  6  7  4  0  0  0  0
  8  9  1  0  0  0  0
  8 12  1  0  0  0  0
  8 19  1  0  0  0  0
  9 10  1  0  0  0  0
 10 11  1  0  0  0  0
 11 12  4  0  0  0  0
 11 16  4  0  0  0  0
 12 13  4  0  0  0  0
 13 14  4  0  0  0  0
 14 15  4  0  0  0  0
 15 16  4  0  0  0  0
 15 17  1  0  0  0  0
 17 18  3  0  0  0  0
 19 20  1  0  0  0  0
 20 21  1  0  0  0  0
 21 22  1  0  0  0  0
 22 23  1  0  0  0  0
 22 24  1  0  0  0  0
M  END
>  <Name_Molregno>
CITALOPRAM

>  <5-HT1A>
5

>  <5-HT1B>
5

>  <5-HT1D>
5

>  <5-HT2A>
5.1

>  <5-HT2C>
6.21

>  <Alpha-1A>
5

>  <Alpha-2A>
5

>  <DOPAMINE D2>
5

>  <DOPAMINE D3>
5

>  <Dopamine transporter>
5

>  <Muscarinic acetylcholine receptor M1>
5.88

>  <Norepinephrine transporter>
5.17

>  <Serotonin transporter>
8.45

$$$$
CLOFLUPEROL
  Marvin  02231216192D 0   1.00000     0.00000     0

 30 32  0  0  0  0  0  0  0  0999 V2000
    1.7528    3.4366    0.0000 Cl  0  0  0  0  0  0  0  0  0
    2.0350    2.6613    0.0000 C   0  0  0  0  0  0  0  0  0
    2.8475    2.5181    0.0000 C   0  0  0  0  0  0  0  0  0
    3.1296    1.7428    0.0000 C   0  0  0  0  0  0  0  0  0
    2.5993    1.1108    0.0000 C   0  0  0  0  0  0  0  0  0
    1.7869    1.2541    0.0000 C   0  0  0  0  0  0  0  0  0
    1.5047    2.0293    0.0000 C   0  0  0  0  0  0  0  0  0
    0.6922    2.1726    0.0000 C   0  0  0  0  0  0  0  0  0
   -0.1202    2.3159    0.0000 F   0  0  0  0  0  0  0  0  0
    0.5490    1.3601    0.0000 F   0  0  0  0  0  0  0  0  0
    0.8355    2.9851    0.0000 F   0  0  0  0  0  0  0  0  0
    2.8815    0.3356    0.0000 C   0  0  0  0  0  0  0  0  0
    2.0690    0.1923    0.0000 O   0  0  0  0  0  0  0  0  0
    3.5960    0.7481    0.0000 C   0  0  0  0  0  0  0  0  0
    4.3104    0.3356    0.0000 C   0  0  0  0  0  0  0  0  0
    4.3104   -0.4894    0.0000 N   0  0  0  0  0  0  0  0  0
    3.5960   -0.9019    0.0000 C   0  0  0  0  0  0  0  0  0
    2.8815   -0.4894    0.0000 C   0  0  0  0  0  0  0  0  0
    5.0249   -0.9019    0.0000 C   0  0  0  0  0  0  0  0  0
    5.7394   -0.4894    0.0000 C   0  0  0  0  0  0  0  0  0
    6.4538   -0.9019    0.0000 C   0  0  0  0  0  0  0  0  0
    7.1683   -0.4894    0.0000 C   0  0  0  0  0  0  0  0  0
    7.1683    0.3356    0.0000 O   0  0  0  0  0  0  0  0  0
    7.8828   -0.9019    0.0000 C   0  0  0  0  0  0  0  0  0
    8.5973   -0.4894    0.0000 C   0  0  0  0  0  0  0  0  0
    9.3117   -0.9019    0.0000 C   0  0  0  0  0  0  0  0  0
    9.3117   -1.7269    0.0000 C   0  0  0  0  0  0  0  0  0
   10.0262   -2.1394    0.0000 F   0  0  0  0  0  0  0  0  0
    8.5973   -2.1394    0.0000 C   0  0  0  0  0  0  0  0  0
    7.8828   -1.7269    0.0000 C   0  0  0  0  0  0  0  0  0
  1  2  1  0  0  0  0
  2  3  4  0  0  0  0
  2  7  4  0  0  0  0
  3  4  4  0  0  0  0
  4  5  4  0  0  0  0
  5  6  4  0  0  0  0
  5 12  1  0  0  0  0
  6  7  4  0  0  0  0
  7  8  1  0  0  0  0
  8  9  1  0  0  0  0
  8 10  1  0  0  0  0
  8 11  1  0  0  0  0
 12 13  1  0  0  0  0
 12 14  1  0  0  0  0
 12 18  1  0  0  0  0
 14 15  1  0  0  0  0
 15 16  1  0  0  0  0
 16 17  1  0  0  0  0
 16 19  1  0  0  0  0
 17 18  1  0  0  0  0
 19 20  1  0  0  0  0
 20 21  1  0  0  0  0
 21 22  1  0  0  0  0
 22 23  2  0  0  0  0
 22 24  1  0  0  0  0
 24 25  4  0  0  0  0
 24 30  4  0  0  0  0
 25 26  4  0  0  0  0
 26 27  4  0  0  0  0
 27 28  1  0  0  0  0
 27 29  4  0  0  0  0
 29 30  4  0  0  0  0
M  END
>  <Name_Molregno>
CLOFLUPEROL

>  <5-HT2A>
8.35

$$$$
CLONIDINE
  Marvin  02231216192D 0   1.00000     0.00000     0

 14 15  0  0  0  0  0  0  0  0999 V2000
   -2.4456   -1.4014    0.0000 Cl  0  0  0  0  0  0  0  0  0
   -2.4456   -0.5764    0.0000 C   0  0  0  0  0  0  0  0  0
   -3.1600   -0.1639    0.0000 C   0  0  0  0  0  0  0  0  0
   -3.1600    0.6611    0.0000 C   0  0  0  0  0  0  0  0  0
   -2.4456    1.0736    0.0000 C   0  0  0  0  0  0  0  0  0
   -1.7311    0.6611    0.0000 C   0  0  0  0  0  0  0  0  0
   -1.0166    1.0736    0.0000 Cl  0  0  0  0  0  0  0  0  0
   -1.7311   -0.1639    0.0000 C   0  0  0  0  0  0  0  0  0
   -1.0166   -0.5764    0.0000 N   0  0  0  0  0  0  0  0  0
   -1.0166   -1.4014    0.0000 C   0  0  0  0  0  0  0  0  0
   -0.3492   -1.8863    0.0000 N   0  0  0  0  0  0  0  0  0
   -0.6041   -2.6709    0.0000 C   0  0  0  0  0  0  0  0  0
   -1.4291   -2.6709    0.0000 C   0  0  0  0  0  0  0  0  0
   -1.6841   -1.8863    0.0000 N   0  0  0  0  0  0  0  0  0
  1  2  1  0  0  0  0
  2  3  4  0  0  0  0
  2  8  4  0  0  0  0
  3  4  4  0  0  0  0
  4  5  4  0  0  0  0
  5  6  4  0  0  0  0
  6  7  1  0  0  0  0
  6  8  4  0  0  0  0
  8  9  1  0  0  0  0
  9 10  1  0  0  0  0
 10 11  1  0  0  0  0
 10 14  2  0  0  0  0
 11 12  1  0  0  0  0
 12 13  1  0  0  0  0
 13 14  1  0  0  0  0
M  END
>  <Name_Molregno>
CLONIDINE

>  <5-HT2A>
5

>  <Alpha-1A>
6.4

>  <Alpha-1B>
6.4

>  <Alpha-2A>
7.33

>  <Alpha-2B>
7.3

>  <Alpha-2C>
6.94

>  <Norepinephrine transporter>
6

$$$$
CLOZAPINE
  Marvin  02231216192D 0   1.00000     0.00000     0

 23 26  0  0  0  0  0  0  0  0999 V2000
   -0.5622   -2.2603    0.0000 Cl  0  0  0  0  0  0  0  0  0
    0.2262   -2.5035    0.0000 C   0  0  0  0  0  0  0  0  0
    0.8309   -1.9424    0.0000 C   0  0  0  0  0  0  0  0  0
    1.6193   -2.1855    0.0000 C   0  0  0  0  0  0  0  0  0
    2.1337   -1.5405    0.0000 N   0  0  0  0  0  0  0  0  0
    2.9587   -1.5405    0.0000 C   0  0  0  0  0  0  0  0  0
    3.3166   -0.7972    0.0000 N   0  0  0  0  0  0  0  0  0
    2.8519   -0.1156    0.0000 C   0  0  0  0  0  0  0  0  0
    3.2098    0.6277    0.0000 C   0  0  0  0  0  0  0  0  0
    4.0325    0.6894    0.0000 N   0  0  0  0  0  0  0  0  0
    4.4973    0.0077    0.0000 C   0  0  0  0  0  0  0  0  0
    4.1393   -0.7356    0.0000 C   0  0  0  0  0  0  0  0  0
    4.3905    1.4327    0.0000 C   0  0  0  0  0  0  0  0  0
    3.4730   -2.1855    0.0000 C   0  0  0  0  0  0  0  0  0
    3.2895   -2.9898    0.0000 C   0  0  0  0  0  0  0  0  0
    2.5462   -3.3478    0.0000 N   0  0  0  0  0  0  0  0  0
    1.8029   -2.9898    0.0000 C   0  0  0  0  0  0  0  0  0
    1.1981   -3.5510    0.0000 C   0  0  0  0  0  0  0  0  0
    0.4098   -3.3078    0.0000 C   0  0  0  0  0  0  0  0  0
    3.8942   -3.5510    0.0000 C   0  0  0  0  0  0  0  0  0
    4.6826   -3.3078    0.0000 C   0  0  0  0  0  0  0  0  0
    4.8662   -2.5035    0.0000 C   0  0  0  0  0  0  0  0  0
    4.2614   -1.9424    0.0000 C   0  0  0  0  0  0  0  0  0
  1  2  1  0  0  0  0
  2  3  4  0  0  0  0
  2 19  4  0  0  0  0
  3  4  4  0  0  0  0
  4  5  1  0  0  0  0
  4 17  4  0  0  0  0
  5  6  1  0  0  0  0
  6  7  1  0  0  0  0
  6 14  2  0  0  0  0
  7  8  1  0  0  0  0
  7 12  1  0  0  0  0
  8  9  1  0  0  0  0
  9 10  1  0  0  0  0
 10 11  1  0  0  0  0
 10 13  1  0  0  0  0
 11 12  1  0  0  0  0
 14 15  1  0  0  0  0
 14 23  1  0  0  0  0
 15 16  2  0  0  0  0
 15 20  1  0  0  0  0
 16 17  1  0  0  0  0
 17 18  4  0  0  0  0
 18 19  4  0  0  0  0
 20 21  2  0  0  0  0
 21 22  1  0  0  0  0
 22 23  2  0  0  0  0
M  END
>  <Name_Molregno>
CLOZAPINE

>  <5-HT1A>
6.88

>  <5-HT1B>
6.33

>  <5-HT1D>
6.27

>  <5-HT1E>
6.19

>  <5-HT2A>
8.22

>  <5-HT2C>
8

>  <5-HT3>
6.62

>  <5-HT5>
5.41

>  <5-HT6>
7.9

>  <5-HT7>
8.05

>  <Alpha-1A>
8.8

>  <Alpha-1B>
8.15

>  <Alpha-2A>
7.15

>  <Alpha-2B>
7.61

>  <Alpha-2C>
7.88

>  <Beta-1>
5.15

>  <Beta-2>
5.39

>  <DOPAMINE D1>
6.69

>  <DOPAMINE D2>
6.9

>  <DOPAMINE D3>
6.62

>  <DOPAMINE D4>
7.62

>  <DOPAMINE D5>
6.62

>  <Dopamine transporter>
5

>  <HISTAMINE H1>
8.81

>  <HISTAMINE H2>
6.82

>  <HISTAMINE H3>
5.25

>  <HISTAMINE H4>
6.15

>  <Muscarinic acetylcholine receptor M1>
8.26

>  <Muscarinic acetylcholine receptor M2>
7.17

>  <Muscarinic acetylcholine receptor M3>
7.59

>  <Muscarinic acetylcholine receptor M4>
7.85

>  <Muscarinic acetylcholine receptor M5>
7.79

>  <Norepinephrine transporter>
5.5

>  <Serotonin transporter>
5.73

$$$$
CLOZAPINE-2
  Marvin  02231216192D 0   1.00000     0.00000     0

 23 26  0  0  0  0  0  0  0  0999 V2000
   -0.5622   -2.2603    0.0000 Cl  0  0  0  0  0  0  0  0  0
    0.2262   -2.5035    0.0000 C   0  0  0  0  0  0  0  0  0
    0.8309   -1.9424    0.0000 C   0  0  0  0  0  0  0  0  0
    1.6193   -2.1855    0.0000 C   0  0  0  0  0  0  0  0  0
    2.1337   -1.5405    0.0000 N   0  0  0  0  0  0  0  0  0
    2.9587   -1.5405    0.0000 C   0  0  0  0  0  0  0  0  0
    3.3166   -0.7972    0.0000 N   0  0  0  0  0  0  0  0  0
    2.8519   -0.1156    0.0000 C   0  0  0  0  0  0  0  0  0
    3.2098    0.6277    0.0000 C   0  0  0  0  0  0  0  0  0
    4.0325    0.6894    0.0000 N   0  0  0  0  0  0  0  0  0
    4.4973    0.0077    0.0000 C   0  0  0  0  0  0  0  0  0
    4.1393   -0.7356    0.0000 C   0  0  0  0  0  0  0  0  0
    4.3905    1.4327    0.0000 C   0  0  0  0  0  0  0  0  0
    3.4730   -2.1855    0.0000 C   0  0  0  0  0  0  0  0  0
    3.2895   -2.9898    0.0000 C   0  0  0  0  0  0  0  0  0
    2.5462   -3.3478    0.0000 N   0  0  0  0  0  0  0  0  0
    1.8029   -2.9898    0.0000 C   0  0  0  0  0  0  0  0  0
    1.1981   -3.5510    0.0000 C   0  0  0  0  0  0  0  0  0
    0.4098   -3.3078    0.0000 C   0  0  0  0  0  0  0  0  0
    3.8942   -3.5510    0.0000 C   0  0  0  0  0  0  0  0  0
    4.6826   -3.3078    0.0000 C   0  0  0  0  0  0  0  0  0
    4.8662   -2.5035    0.0000 C   0  0  0  0  0  0  0  0  0
    4.2614   -1.9424    0.0000 C   0  0  0  0  0  0  0  0  0
  1  2  1  0  0  0  0
  2  3  4  0  0  0  0
  2 19  4  0  0  0  0
  3  4  4  0  0  0  0
  4  5  1  0  0  0  0
  4 17  4  0  0  0  0
  5  6  2  0  0  0  0
  6  7  1  0  0  0  0
  6 14  1  0  0  0  0
  7  8  1  0  0  0  0
  7 12  1  0  0  0  0
  8  9  1  0  0  0  0
  9 10  1  0  0  0  0
 10 11  1  0  0  0  0
 10 13  1  0  0  0  0
 11 12  1  0  0  0  0
 14 15  4  0  0  0  0
 14 23  4  0  0  0  0
 15 16  1  0  0  0  0
 15 20  4  0  0  0  0
 16 17  1  0  0  0  0
 17 18  4  0  0  0  0
 18 19  4  0  0  0  0
 20 21  4  0  0  0  0
 21 22  4  0  0  0  0
 22 23  4  0  0  0  0
M  END
>  <Name_Molregno>
CLOZAPINE-2

>  <5-HT1A>
6.92

>  <5-HT2A>
8.15

>  <5-HT2C>
7.92

>  <5-HT3>
6.4

>  <5-HT5>
6

>  <5-HT6>
7.85

>  <5-HT7>
7.47

>  <Alpha-2A>
7.62

>  <Alpha-2C>
8.54

>  <DOPAMINE D1>
7

>  <DOPAMINE D2>
7.03

>  <DOPAMINE D3>
6.48

>  <DOPAMINE D4>
7.6

>  <DOPAMINE D5>
6.7

>  <HISTAMINE H1>
8.77

>  <HISTAMINE H3>
6.1

>  <HISTAMINE H4>
6.75

>  <Muscarinic acetylcholine receptor M1>
8.47

>  <Muscarinic acetylcholine receptor M4>
7.9

>  <Serotonin transporter>
5.41

$$$$
Cyamemazine
  Marvin  02231216192D 0   1.00000     0.00000     0

 23 25  0  0  1  0  0  0  0  0999 V2000
   -0.6214   -0.6088    0.0000 S   0  0  0  0  0  0  0  0  0
   -0.6214   -1.4338    0.0000 C   0  0  0  0  0  0  0  0  0
    0.0931   -1.8463    0.0000 C   0  0  0  0  0  0  0  0  0
    0.8076   -1.4338    0.0000 N   0  0  0  0  0  0  0  0  0
    0.8076   -0.6088    0.0000 C   0  0  0  0  0  0  0  0  0
    0.0931   -0.1963    0.0000 C   0  0  0  0  0  0  0  0  0
    0.0931    0.6287    0.0000 C   0  0  0  0  0  0  0  0  0
    0.8076    1.0412    0.0000 C   0  0  0  0  0  0  0  0  0
    1.5220    0.6287    0.0000 C   0  0  0  0  0  0  0  0  0
    1.5220   -0.1963    0.0000 C   0  0  0  0  0  0  0  0  0
    1.5220   -1.8463    0.0000 C   0  0  0  0  0  0  0  0  0
    2.2365   -1.4338    0.0000 C   0  0  0  0  0  0  0  0  0
    2.9510   -1.8463    0.0000 C   0  0  0  0  0  0  0  0  0
    3.6655   -1.4338    0.0000 N   0  0  0  0  0  0  0  0  0
    4.3799   -1.8463    0.0000 C   0  0  0  0  0  0  0  0  0
    3.6655   -0.6088    0.0000 C   0  0  0  0  0  0  0  0  0
    2.2365   -0.6088    0.0000 C   0  0  0  0  0  0  0  0  0
    0.0931   -2.6713    0.0000 C   0  0  0  0  0  0  0  0  0
   -0.6214   -3.0838    0.0000 C   0  0  0  0  0  0  0  0  0
   -1.3358   -2.6713    0.0000 C   0  0  0  0  0  0  0  0  0
   -1.3358   -1.8463    0.0000 C   0  0  0  0  0  0  0  0  0
   -0.6214   -3.9088    0.0000 C   0  0  0  0  0  0  0  0  0
   -0.6214   -4.7338    0.0000 N   0  0  0  0  0  0  0  0  0
  1  2  1  0  0  0  0
  1  6  1  0  0  0  0
  2  3  4  0  0  0  0
  2 21  4  0  0  0  0
  3  4  1  0  0  0  0
  3 18  4  0  0  0  0
  4  5  1  0  0  0  0
  4 11  1  0  0  0  0
  5  6  4  0  0  0  0
  5 10  4  0  0  0  0
  6  7  4  0  0  0  0
  7  8  4  0  0  0  0
  8  9  4  0  0  0  0
  9 10  4  0  0  0  0
 11 12  1  0  0  0  0
 12 13  1  0  0  0  0
 12 17  1  0  0  0  0
 13 14  1  0  0  0  0
 14 15  1  0  0  0  0
 14 16  1  0  0  0  0
 18 19  4  0  0  0  0
 19 20  4  0  0  0  0
 19 22  1  0  0  0  0
 20 21  4  0  0  0  0
 22 23  3  0  0  0  0
M  END
>  <Name_Molregno>
Cyamemazine

>  <5-HT1A>
6.29

>  <5-HT2A>
8.82

>  <5-HT2C>
7.92

>  <5-HT3>
5.53

>  <5-HT7>
7.66

>  <DOPAMINE D1>
8.42

>  <DOPAMINE D2>
8.24

>  <DOPAMINE D3>
8.6

>  <DOPAMINE D4>
8.28

>  <Muscarinic acetylcholine receptor M1>
7.89

>  <Muscarinic acetylcholine receptor M2>
7.38

>  <Muscarinic acetylcholine receptor M3>
7.49

>  <Muscarinic acetylcholine receptor M4>
7.92

>  <Muscarinic acetylcholine receptor M5>
7.46

$$$$
CYPROHEPTADINE
  Marvin  02231216192D 0   1.00000     0.00000     0

 22 25  0  0  0  0  0  0  0  0999 V2000
    2.3061   -2.3673    0.0000 N   0  0  0  0  0  0  0  0  0
    1.5917   -1.9548    0.0000 C   0  0  0  0  0  0  0  0  0
    1.5917   -1.1298    0.0000 C   0  0  0  0  0  0  0  0  0
    2.3061   -0.7173    0.0000 C   0  0  0  0  0  0  0  0  0
    3.0206   -1.1298    0.0000 C   0  0  0  0  0  0  0  0  0
    3.0206   -1.9548    0.0000 C   0  0  0  0  0  0  0  0  0
    2.3061    0.1077    0.0000 C   0  0  0  0  0  0  0  0  0
    3.0494    0.4657    0.0000 C   0  0  0  0  0  0  0  0  0
    3.2330    1.2700    0.0000 C   0  0  0  0  0  0  0  0  0
    2.7186    1.9150    0.0000 C   0  0  0  0  0  0  0  0  0
    1.8936    1.9150    0.0000 C   0  0  0  0  0  0  0  0  0
    1.3792    1.2700    0.0000 C   0  0  0  0  0  0  0  0  0
    1.5628    0.4657    0.0000 C   0  0  0  0  0  0  0  0  0
    0.9581   -0.0955    0.0000 C   0  0  0  0  0  0  0  0  0
    0.1697    0.1477    0.0000 C   0  0  0  0  0  0  0  0  0
   -0.0139    0.9520    0.0000 C   0  0  0  0  0  0  0  0  0
    0.5909    1.5132    0.0000 C   0  0  0  0  0  0  0  0  0
    4.0214    1.5132    0.0000 C   0  0  0  0  0  0  0  0  0
    4.6261    0.9520    0.0000 C   0  0  0  0  0  0  0  0  0
    4.4425    0.1477    0.0000 C   0  0  0  0  0  0  0  0  0
    3.6542   -0.0955    0.0000 C   0  0  0  0  0  0  0  0  0
    2.3061   -3.1923    0.0000 C   0  0  0  0  0  0  0  0  0
  1  2  1  0  0  0  0
  1  6  1  0  0  0  0
  1 22  1  0  0  0  0
  2  3  1  0  0  0  0
  3  4  1  0  0  0  0
  4  5  1  0  0  0  0
  4  7  2  0  0  0  0
  5  6  1  0  0  0  0
  7  8  1  0  0  0  0
  7 13  1  0  0  0  0
  8  9  4  0  0  0  0
  8 21  4  0  0  0  0
  9 10  1  0  0  0  0
  9 18  4  0  0  0  0
 10 11  2  0  0  0  0
 11 12  1  0  0  0  0
 12 13  4  0  0  0  0
 12 17  4  0  0  0  0
 13 14  4  0  0  0  0
 14 15  4  0  0  0  0
 15 16  4  0  0  0  0
 16 17  4  0  0  0  0
 18 19  4  0  0  0  0
 19 20  4  0  0  0  0
 20 21  4  0  0  0  0
M  END
>  <Name_Molregno>
CYPROHEPTADINE

>  <5-HT1A>
7.12

>  <5-HT1D>
5.89

>  <5-HT2A>
8.42

>  <5-HT2C>
8.65

>  <5-HT6>
6.85

>  <5-HT7>
6.91

>  <DOPAMINE D1>
6.93

>  <DOPAMINE D2>
6.95

>  <DOPAMINE D3>
8.1

>  <HISTAMINE H1>
10.22

>  <HISTAMINE H3>
5

>  <HISTAMINE H4>
5.85

>  <Muscarinic acetylcholine receptor M1>
7.92

>  <Muscarinic acetylcholine receptor M2>
8.15

>  <Muscarinic acetylcholine receptor M3>
7.92

>  <Muscarinic acetylcholine receptor M4>
8.1

>  <Muscarinic acetylcholine receptor M5>
7.93

$$$$
d-Fenfluramine
  Marvin  02231216192D 0   1.00000     0.00000     0

 16 16  0  0  1  0  0  0  0  0999 V2000
   -5.1694    0.5172    0.0000 F   0  0  0  0  0  0  0  0  0
   -4.4549    0.1047    0.0000 C   0  0  0  0  0  0  0  0  0
   -4.8674   -0.6097    0.0000 F   0  0  0  0  0  0  0  0  0
   -4.0424    0.8192    0.0000 F   0  0  0  0  0  0  0  0  0
   -3.7405   -0.3078    0.0000 C   0  0  0  0  0  0  0  0  0
   -3.0260    0.1047    0.0000 C   0  0  0  0  0  0  0  0  0
   -2.3115   -0.3078    0.0000 C   0  0  0  0  0  0  0  0  0
   -2.3115   -1.1328    0.0000 C   0  0  0  0  0  0  0  0  0
   -3.0260   -1.5453    0.0000 C   0  0  0  0  0  0  0  0  0
   -3.7405   -1.1328    0.0000 C   0  0  0  0  0  0  0  0  0
   -1.5971    0.1047    0.0000 C   0  0  0  0  0  0  0  0  0
   -0.8826   -0.3078    0.0000 C   0  0  0  0  0  0  0  0  0
   -0.1681    0.1047    0.0000 N   0  0  0  0  0  0  0  0  0
    0.5464   -0.3078    0.0000 C   0  0  0  0  0  0  0  0  0
    1.2608    0.1047    0.0000 C   0  0  0  0  0  0  0  0  0
   -0.8826   -1.1328    0.0000 C   0  0  0  0  0  0  0  0  0
  1  2  1  0  0  0  0
  2  3  1  0  0  0  0
  2  4  1  0  0  0  0
  2  5  1  0  0  0  0
  5  6  4  0  0  0  0
  5 10  4  0  0  0  0
  6  7  4  0  0  0  0
  7  8  4  0  0  0  0
  7 11  1  0  0  0  0
  8  9  4  0  0  0  0
  9 10  4  0  0  0  0
 11 12  1  0  0  0  0
 12 13  1  0  0  0  0
 12 16  1  0  0  0  0
 13 14  1  0  0  0  0
 14 15  1  0  0  0  0
M  END
>  <Name_Molregno>
d-Fenfluramine

>  <5-HT1A>
6.11

>  <5-HT1B>
5.67

>  <5-HT1D>
5.79

>  <5-HT1E>
5

>  <5-HT2A>
5.92

>  <5-HT2C>
6.27

>  <5-HT3>
5

>  <5-HT5>
5

>  <5-HT6>
5.01

>  <5-HT7>
5.17

>  <Alpha-1A>
5.52

>  <Alpha-1B>
5.62

>  <Alpha-2A>
6.26

>  <Alpha-2B>
6.65

>  <Alpha-2C>
6.68

>  <Beta-1>
5.67

>  <Beta-2>
5.07

>  <DOPAMINE D1>
5

>  <DOPAMINE D2>
5

>  <DOPAMINE D4>
5

>  <DOPAMINE D5>
5

>  <Dopamine transporter>
5

>  <HISTAMINE H1>
5

>  <HISTAMINE H2>
5

>  <Muscarinic acetylcholine receptor M1>
5.61

>  <Muscarinic acetylcholine receptor M2>
5.39

>  <Muscarinic acetylcholine receptor M3>
5.22

>  <Muscarinic acetylcholine receptor M4>
5.1

>  <Muscarinic acetylcholine receptor M5>
5

>  <Norepinephrine transporter>
5

>  <Serotonin transporter>
6.18

$$$$
Diclofenac
  Marvin  02231216192D 0   1.00000     0.00000     0

 19 20  0  0  0  0  0  0  0  0999 V2000
    1.8639   -0.1839    0.0000 Cl  0  0  0  0  0  0  0  0  0
    1.8639   -1.0089    0.0000 C   0  0  0  0  0  0  0  0  0
    2.5784   -1.4214    0.0000 C   0  0  0  0  0  0  0  0  0
    2.5784   -2.2464    0.0000 C   0  0  0  0  0  0  0  0  0
    1.8639   -2.6589    0.0000 C   0  0  0  0  0  0  0  0  0
    1.1494   -2.2464    0.0000 C   0  0  0  0  0  0  0  0  0
    0.4350   -2.6589    0.0000 Cl  0  0  0  0  0  0  0  0  0
    1.1494   -1.4214    0.0000 C   0  0  0  0  0  0  0  0  0
    0.4350   -1.0089    0.0000 N   0  0  0  0  0  0  0  0  0
   -0.2795   -1.4214    0.0000 C   0  0  0  0  0  0  0  0  0
   -0.2795   -2.2464    0.0000 C   0  0  0  0  0  0  0  0  0
   -0.9940   -2.6589    0.0000 C   0  0  0  0  0  0  0  0  0
   -1.7085   -2.2464    0.0000 C   0  0  0  0  0  0  0  0  0
   -1.7085   -1.4214    0.0000 C   0  0  0  0  0  0  0  0  0
   -0.9940   -1.0089    0.0000 C   0  0  0  0  0  0  0  0  0
   -0.9940   -0.1839    0.0000 C   0  0  0  0  0  0  0  0  0
   -0.2795    0.2286    0.0000 C   0  0  0  0  0  0  0  0  0
   -0.2795    1.0536    0.0000 O   0  0  0  0  0  0  0  0  0
    0.4350   -0.1839    0.0000 O   0  0  0  0  0  0  0  0  0
  1  2  1  0  0  0  0
  2  3  4  0  0  0  0
  2  8  4  0  0  0  0
  3  4  4  0  0  0  0
  4  5  4  0  0  0  0
  5  6  4  0  0  0  0
  6  7  1  0  0  0  0
  6  8  4  0  0  0  0
  8  9  1  0  0  0  0
  9 10  1  0  0  0  0
 10 11  4  0  0  0  0
 10 15  4  0  0  0  0
 11 12  4  0  0  0  0
 12 13  4  0  0  0  0
 13 14  4  0  0  0  0
 14 15  4  0  0  0  0
 15 16  1  0  0  0  0
 16 17  1  0  0  0  0
 17 18  1  0  0  0  0
 17 19  2  0  0  0  0
M  END
>  <Name_Molregno>
Diclofenac

>  <5-HT1A>
5

>  <5-HT1B>
5

>  <5-HT1D>
5

>  <5-HT1E>
5

>  <5-HT2A>
5

>  <5-HT3>
5

>  <5-HT5>
5

>  <5-HT6>
5

>  <5-HT7>
5

>  <Alpha-1A>
5

>  <Alpha-1B>
5

>  <Alpha-2A>
5

>  <Alpha-2B>
5

>  <Alpha-2C>
5

>  <DOPAMINE D1>
5

>  <DOPAMINE D2>
5

>  <DOPAMINE D4>
5

>  <DOPAMINE D5>
5

>  <HISTAMINE H1>
5

>  <HISTAMINE H2>
5

>  <Muscarinic acetylcholine receptor M2>
5

>  <Muscarinic acetylcholine receptor M5>
5

$$$$
DILTIAZEM
  Marvin  02231216192D 0   1.00000     0.00000     0

 29 31  0  0  1  0  0  0  0  0999 V2000
   -0.8954    0.0946    0.0000 S   0  0  0  0  0  0  0  0  0
   -1.5404    0.6090    0.0000 C   0  0  0  0  0  0  0  0  0
   -1.5404    1.4340    0.0000 C   0  0  0  0  0  0  0  0  0
   -0.8954    1.9484    0.0000 N   0  0  0  0  0  0  0  0  0
   -1.0790    2.7527    0.0000 C   0  0  0  0  0  0  0  0  0
   -1.8674    2.9959    0.0000 C   0  0  0  0  0  0  0  0  0
   -2.0509    3.8002    0.0000 N   0  0  0  0  0  0  0  0  0
   -2.8393    4.0434    0.0000 C   0  0  0  0  0  0  0  0  0
   -1.4462    4.3614    0.0000 C   0  0  0  0  0  0  0  0  0
   -0.0911    1.7648    0.0000 C   0  0  0  0  0  0  0  0  0
    0.4233    2.4098    0.0000 O   0  0  0  0  0  0  0  0  0
    0.2668    1.0215    0.0000 C   0  0  0  0  0  0  0  0  0
    1.0918    1.0215    0.0000 O   0  0  0  0  0  0  0  0  0
    1.5043    1.7360    0.0000 C   0  0  0  0  0  0  0  0  0
    1.0918    2.4505    0.0000 O   0  0  0  0  0  0  0  0  0
    2.3293    1.7360    0.0000 C   0  0  0  0  0  0  0  0  0
   -0.0911    0.2782    0.0000 C   0  0  0  0  0  0  0  0  0
    0.4233   -0.3668    0.0000 C   0  0  0  0  0  0  0  0  0
    1.2390   -0.2438    0.0000 C   0  0  0  0  0  0  0  0  0
    1.7534   -0.8888    0.0000 C   0  0  0  0  0  0  0  0  0
    1.4520   -1.6568    0.0000 C   0  0  0  0  0  0  0  0  0
    1.9664   -2.3018    0.0000 O   0  0  0  0  0  0  0  0  0
    2.7822   -2.1789    0.0000 C   0  0  0  0  0  0  0  0  0
    0.6362   -1.7798    0.0000 C   0  0  0  0  0  0  0  0  0
    0.1219   -1.1348    0.0000 C   0  0  0  0  0  0  0  0  0
   -2.2549    1.8465    0.0000 C   0  0  0  0  0  0  0  0  0
   -2.9694    1.4340    0.0000 C   0  0  0  0  0  0  0  0  0
   -2.9694    0.6090    0.0000 C   0  0  0  0  0  0  0  0  0
   -2.2549    0.1965    0.0000 C   0  0  0  0  0  0  0  0  0
  1  2  1  0  0  0  0
  1 17  1  0  0  0  0
  2  3  4  0  0  0  0
  2 29  4  0  0  0  0
  3  4  1  0  0  0  0
  3 26  4  0  0  0  0
  4  5  1  0  0  0  0
  4 10  1  0  0  0  0
  5  6  1  0  0  0  0
  6  7  1  0  0  0  0
  7  8  1  0  0  0  0
  7  9  1  0  0  0  0
 10 11  2  0  0  0  0
 10 12  1  0  0  0  0
 12 13  1  0  0  0  0
 12 17  1  0  0  0  0
 13 14  1  0  0  0  0
 14 15  2  0  0  0  0
 14 16  1  0  0  0  0
 17 18  1  0  0  0  0
 18 19  4  0  0  0  0
 18 25  4  0  0  0  0
 19 20  4  0  0  0  0
 20 21  4  0  0  0  0
 21 22  1  0  0  0  0
 21 24  4  0  0  0  0
 22 23  1  0  0  0  0
 24 25  4  0  0  0  0
 26 27  4  0  0  0  0
 27 28  4  0  0  0  0
 28 29  4  0  0  0  0
M  END
>  <Name_Molregno>
DILTIAZEM

>  <5-HT1A>
5

>  <5-HT2A>
5.62

$$$$
DMA
  Marvin  02231216192D 0   1.00000     0.00000     0

 14 14  0  0  1  0  0  0  0  0999 V2000
    1.3131    1.7758    0.0000 O   0  0  0  0  0  0  0  0  0
    1.3131    2.6008    0.0000 C   0  0  0  0  0  0  0  0  0
    0.5987    1.3633    0.0000 C   0  0  0  0  0  0  0  0  0
    0.5987    0.5383    0.0000 C   0  0  0  0  0  0  0  0  0
   -0.1158    0.1258    0.0000 C   0  0  0  0  0  0  0  0  0
   -0.8303    0.5383    0.0000 C   0  0  0  0  0  0  0  0  0
   -1.5447    0.1258    0.0000 O   0  0  0  0  0  0  0  0  0
   -1.5447   -0.6992    0.0000 C   0  0  0  0  0  0  0  0  0
   -0.8303    1.3633    0.0000 C   0  0  0  0  0  0  0  0  0
   -0.1158    1.7758    0.0000 C   0  0  0  0  0  0  0  0  0
   -0.1158    2.6008    0.0000 C   0  0  0  0  0  0  0  0  0
   -0.8303    3.0133    0.0000 C   0  0  0  0  0  0  0  0  0
   -1.5447    2.6008    0.0000 N   0  0  0  0  0  0  0  0  0
   -0.8303    3.8383    0.0000 C   0  0  0  0  0  0  0  0  0
  1  2  1  0  0  0  0
  1  3  1  0  0  0  0
  3  4  4  0  0  0  0
  3 10  4  0  0  0  0
  4  5  4  0  0  0  0
  5  6  4  0  0  0  0
  6  7  1  0  0  0  0
  6  9  4  0  0  0  0
  7  8  1  0  0  0  0
  9 10  4  0  0  0  0
 10 11  1  0  0  0  0
 11 12  1  0  0  0  0
 12 13  1  0  0  0  0
 12 14  1  0  0  0  0
M  END
>  <Name_Molregno>
DMA

>  <5-HT2A>
6.68

>  <5-HT2C>
6.98

$$$$
DMA,2,5-
  Marvin  02231216192D 0   1.00000     0.00000     0

 29 31  0  0  0  0  0  0  0  0999 V2000
    0.0120   -0.3341    0.0000 O   0  0  0  0  0  0  0  0  0
    0.7265    0.0784    0.0000 C   0  0  0  0  0  0  0  0  0
    0.7265    0.9034    0.0000 C   0  0  0  0  0  0  0  0  0
    1.4409    1.3159    0.0000 C   0  0  0  0  0  0  0  0  0
    1.4409    2.1409    0.0000 O   0  0  0  0  0  0  0  0  0
    2.1554    0.9034    0.0000 C   0  0  0  0  0  0  0  0  0
    2.8699    1.3159    0.0000 C   0  0  0  0  0  0  0  0  0
    3.5844    0.9034    0.0000 C   0  0  0  0  0  0  0  0  0
    4.2988    1.3159    0.0000 C   0  0  0  0  0  0  0  0  0
    5.0133    0.9034    0.0000 C   0  0  0  0  0  0  0  0  0
    4.2988    2.1409    0.0000 C   0  0  0  0  0  0  0  0  0
    2.1554    0.0784    0.0000 C   0  0  0  0  0  0  0  0  0
    2.8699   -0.3341    0.0000 O   0  0  0  0  0  0  0  0  0
    1.4409   -0.3341    0.0000 C   0  0  0  0  0  0  0  0  0
    1.4409   -1.1591    0.0000 C   0  0  0  0  0  0  0  0  0
    2.1554   -1.5716    0.0000 C   0  0  0  0  0  0  0  0  0
    2.1554   -2.3966    0.0000 C   0  0  0  0  0  0  0  0  0
    1.4409   -2.8091    0.0000 C   0  0  0  0  0  0  0  0  0
    2.8699   -2.8091    0.0000 C   0  0  0  0  0  0  0  0  0
    0.0120    1.3159    0.0000 C   0  0  0  0  0  0  0  0  0
    0.0120    2.1409    0.0000 O   0  0  0  0  0  0  0  0  0
   -0.7025    0.9034    0.0000 C   0  0  0  0  0  0  0  0  0
   -0.7025    0.0784    0.0000 C   0  0  0  0  0  0  0  0  0
   -1.4169   -0.3341    0.0000 C   0  0  0  0  0  0  0  0  0
   -1.4169   -1.1591    0.0000 C   0  0  0  0  0  0  0  0  0
   -2.1314   -1.5716    0.0000 C   0  0  0  0  0  0  0  0  0
   -2.8459   -1.1591    0.0000 C   0  0  0  0  0  0  0  0  0
   -2.8459   -0.3341    0.0000 C   0  0  0  0  0  0  0  0  0
   -2.1314    0.0784    0.0000 C   0  0  0  0  0  0  0  0  0
  1  2  1  0  0  0  0
  1 23  1  0  0  0  0
  2  3  4  0  0  0  0
  2 14  4  0  0  0  0
  3  4  4  0  0  0  0
  3 20  1  0  0  0  0
  4  5  1  0  0  0  0
  4  6  4  0  0  0  0
  6  7  1  0  0  0  0
  6 12  4  0  0  0  0
  7  8  1  0  0  0  0
  8  9  2  0  0  0  0
  9 10  1  0  0  0  0
  9 11  1  0  0  0  0
 12 13  1  0  0  0  0
 12 14  4  0  0  0  0
 14 15  1  0  0  0  0
 15 16  1  0  0  0  0
 16 17  2  0  0  0  0
 17 18  1  0  0  0  0
 17 19  1  0  0  0  0
 20 21  2  0  0  0  0
 20 22  1  0  0  0  0
 22 23  2  0  0  0  0
 23 24  1  0  0  0  0
 24 25  4  0  0  0  0
 24 29  4  0  0  0  0
 25 26  4  0  0  0  0
 26 27  4  0  0  0  0
 27 28  4  0  0  0  0
 28 29  4  0  0  0  0
M  END
>  <Name_Molregno>
DMA,2,5-

>  <5-HT2A>
5.52

$$$$
DMT,5-OH
  Marvin  02231216192D 0   1.00000     0.00000     0

 15 16  0  0  0  0  0  0  0  0999 V2000
    0.0571   -1.1867    0.0000 O   0  0  0  0  0  0  0  0  0
   -0.6573   -0.7742    0.0000 C   0  0  0  0  0  0  0  0  0
   -1.3718   -1.1867    0.0000 C   0  0  0  0  0  0  0  0  0
   -2.0863   -0.7742    0.0000 C   0  0  0  0  0  0  0  0  0
   -2.0863    0.0508    0.0000 C   0  0  0  0  0  0  0  0  0
   -2.8709    0.3058    0.0000 N   0  0  0  0  0  0  0  0  0
   -3.3558   -0.3617    0.0000 C   0  0  0  0  0  0  0  0  0
   -2.8709   -1.0291    0.0000 C   0  0  0  0  0  0  0  0  0
   -3.1258   -1.8137    0.0000 C   0  0  0  0  0  0  0  0  0
   -2.5738   -2.4268    0.0000 C   0  0  0  0  0  0  0  0  0
   -2.8287   -3.2115    0.0000 N   0  0  0  0  0  0  0  0  0
   -2.2767   -3.8246    0.0000 C   0  0  0  0  0  0  0  0  0
   -3.6357   -3.3830    0.0000 C   0  0  0  0  0  0  0  0  0
   -1.3718    0.4633    0.0000 C   0  0  0  0  0  0  0  0  0
   -0.6573    0.0508    0.0000 C   0  0  0  0  0  0  0  0  0
  1  2  1  0  0  0  0
  2  3  4  0  0  0  0
  2 15  4  0  0  0  0
  3  4  4  0  0  0  0
  4  5  4  0  0  0  0
  4  8  4  0  0  0  0
  5  6  4  0  0  0  0
  5 14  4  0  0  0  0
  6  7  4  0  0  0  0
  7  8  4  0  0  0  0
  8  9  1  0  0  0  0
  9 10  1  0  0  0  0
 10 11  1  0  0  0  0
 11 12  1  0  0  0  0
 11 13  1  0  0  0  0
 14 15  4  0  0  0  0
M  STY  1   1 DAT
M  SAL   1  1   6
M  SDT   1 MRV_IMPLICIT_H                                        
M  SDD   1     0.0000    0.0000    DR    ALL  0       0  
M  SED   1 IMPL_H1
M  END
>  <Name_Molregno>
DMT,5-OH

>  <5-HT2A>
7.33

$$$$
DOB
  Marvin  02231216192D 0   1.00000     0.00000     0

 15 15  0  0  1  0  0  0  0  0999 V2000
    4.0349    1.0801    0.0000 Br  0  0  0  0  0  0  0  0  0
    3.3204    0.6676    0.0000 C   0  0  0  0  0  0  0  0  0
    3.3204   -0.1574    0.0000 C   0  0  0  0  0  0  0  0  0
    2.6059   -0.5699    0.0000 C   0  0  0  0  0  0  0  0  0
    2.6059   -1.3949    0.0000 O   0  0  0  0  0  0  0  0  0
    1.8915   -1.8074    0.0000 C   0  0  0  0  0  0  0  0  0
    1.8915   -0.1574    0.0000 C   0  0  0  0  0  0  0  0  0
    1.8915    0.6676    0.0000 C   0  0  0  0  0  0  0  0  0
    2.6059    1.0801    0.0000 C   0  0  0  0  0  0  0  0  0
    2.6059    1.9051    0.0000 O   0  0  0  0  0  0  0  0  0
    1.8915    2.3176    0.0000 C   0  0  0  0  0  0  0  0  0
    1.1770   -0.5699    0.0000 C   0  0  0  0  0  0  0  0  0
    0.4625   -0.1574    0.0000 C   0  0  0  0  0  0  0  0  0
   -0.2519   -0.5699    0.0000 N   0  0  0  0  0  0  0  0  0
    0.4625    0.6676    0.0000 C   0  0  0  0  0  0  0  0  0
  1  2  1  0  0  0  0
  2  3  4  0  0  0  0
  2  9  4  0  0  0  0
  3  4  4  0  0  0  0
  4  5  1  0  0  0  0
  4  7  4  0  0  0  0
  5  6  1  0  0  0  0
  7  8  4  0  0  0  0
  7 12  1  0  0  0  0
  8  9  4  0  0  0  0
  9 10  1  0  0  0  0
 10 11  1  0  0  0  0
 12 13  1  0  0  0  0
 13 14  1  0  0  0  0
 13 15  1  0  0  0  0
M  END
>  <Name_Molregno>
DOB

>  <5-HT1A>
5.2

>  <5-HT1E>
6.25

>  <5-HT2A>
8.35

>  <5-HT2C>
8.4

$$$$
DOB-2
  Marvin  02231216192D 0   1.00000     0.00000     0

 27 29  0  0  1  0  0  0  0  0999 V2000
    1.6640   -1.6910    0.0000 O   0  0  0  0  0  0  0  0  0
    0.8390   -1.6910    0.0000 C   0  0  0  0  0  0  0  0  0
    0.4265   -2.4054    0.0000 C   0  0  0  0  0  0  0  0  0
    0.4265   -0.9765    0.0000 C   0  0  0  0  0  0  0  0  0
    0.8390   -0.2620    0.0000 C   0  0  0  0  0  0  0  0  0
    1.6640   -0.2620    0.0000 N   0  0  0  0  0  0  0  0  0
    2.0765    0.4524    0.0000 C   0  0  0  0  0  0  0  0  0
    1.6640    1.1669    0.0000 C   0  0  0  0  0  0  0  0  0
    0.8390    1.1669    0.0000 N   0  0  0  0  0  0  0  0  0
    0.4265    0.4524    0.0000 C   0  0  0  0  0  0  0  0  0
   -0.3985    0.4524    0.0000 C   0  0  0  0  0  0  0  0  0
   -0.8110   -0.2620    0.0000 C   0  0  0  0  0  0  0  0  0
   -0.3985   -0.9765    0.0000 C   0  0  0  0  0  0  0  0  0
    2.0765    1.8814    0.0000 C   0  0  0  0  0  0  0  0  0
    2.9015    1.8814    0.0000 C   0  0  0  0  0  0  0  0  0
    3.3140    1.1669    0.0000 C   0  0  0  0  0  0  0  0  0
    2.9015    0.4524    0.0000 C   0  0  0  0  0  0  0  0  0
    1.6640    2.5958    0.0000 C   0  0  0  0  0  0  0  0  0
    2.0765    3.3103    0.0000 O   0  0  0  0  0  0  0  0  0
    0.8390    2.5958    0.0000 O   0  0  0  0  0  0  0  0  0
    2.0765   -2.4054    0.0000 C   0  0  0  0  0  0  0  0  0
    1.6640   -3.1199    0.0000 O   0  0  0  0  0  0  0  0  0
    2.9015   -2.4054    0.0000 C   0  0  0  0  0  0  0  0  0
    3.3140   -3.1199    0.0000 O   0  0  0  0  0  0  0  0  0
    4.1390   -3.1199    0.0000 C   0  0  0  0  0  0  0  0  0
    3.3140   -1.6910    0.0000 C   0  0  0  0  0  0  0  0  0
    4.1390   -1.6910    0.0000 O   0  0  0  0  0  0  0  0  0
  1  2  1  0  0  0  0
  1 21  1  0  0  0  0
  2  3  1  0  0  0  0
  2  4  1  0  0  0  0
  4  5  4  0  0  0  0
  4 13  4  0  0  0  0
  5  6  4  0  0  0  0
  5 10  4  0  0  0  0
  6  7  4  0  0  0  0
  7  8  4  0  0  0  0
  7 17  4  0  0  0  0
  8  9  4  0  0  0  0
  8 14  4  0  0  0  0
  9 10  4  0  0  0  0
 10 11  4  0  0  0  0
 11 12  4  0  0  0  0
 12 13  4  0  0  0  0
 14 15  4  0  0  0  0
 14 18  1  0  0  0  0
 15 16  4  0  0  0  0
 16 17  4  0  0  0  0
 18 19  1  0  0  0  0
 18 20  2  0  0  0  0
 21 22  2  0  0  0  0
 21 23  1  0  0  0  0
 23 24  1  0  0  0  0
 23 26  1  0  0  0  0
 24 25  1  0  0  0  0
 26 27  1  0  0  0  0
M  END
>  <Name_Molregno>
DOB-2

>  <5-HT2A>
7.77

$$$$
DOC
  Marvin  02231216192D 0   1.00000     0.00000     0

 24 27  0  0  1  0  0  0  0  0999 V2000
   -0.0042    0.5920    0.0000 O   0  0  0  0  0  0  0  0  0
    0.8079    0.4468    0.0000 C   0  0  0  0  0  0  0  0  0
    1.0882   -0.3291    0.0000 C   0  0  0  0  0  0  0  0  0
    1.9003   -0.4743    0.0000 C   0  0  0  0  0  0  0  0  0
    2.4321    0.1564    0.0000 C   0  0  0  0  0  0  0  0  0
    3.2442    0.0112    0.0000 C   0  0  0  0  0  0  0  0  0
    3.7761    0.6419    0.0000 C   0  0  0  0  0  0  0  0  0
    4.5882    0.4967    0.0000 C   0  0  0  0  0  0  0  0  0
    5.2395    1.0030    0.0000 C   0  0  0  0  0  0  0  0  0
    5.9223    0.5401    0.0000 C   0  0  0  0  0  0  0  0  0
    5.6930   -0.2524    0.0000 C   0  0  0  0  0  0  0  0  0
    6.1994   -0.9038    0.0000 C   0  0  0  0  0  0  0  0  0
    7.0166   -0.7909    0.0000 O   0  0  0  0  0  0  0  0  0
    5.8885   -1.6679    0.0000 C   0  0  0  0  0  0  0  0  0
    6.3949   -2.3193    0.0000 O   0  0  0  0  0  0  0  0  0
    4.8685   -0.2792    0.0000 C   0  0  0  0  0  0  0  0  0
    4.3367   -0.9100    0.0000 C   0  0  0  0  0  0  0  0  0
    3.5245   -0.7647    0.0000 C   0  0  0  0  0  0  0  0  0
    5.2283   -1.0216    0.0000 C   0  0  0  0  0  0  0  0  0
    3.4958    1.4178    0.0000 C   0  0  0  0  0  0  0  0  0
    2.6836    1.5630    0.0000 C   0  0  0  0  0  0  0  0  0
    2.1518    0.9323    0.0000 C   0  0  0  0  0  0  0  0  0
    1.3397    1.0775    0.0000 C   0  0  0  0  0  0  0  0  0
    2.7124   -0.6195    0.0000 C   0  0  0  0  0  0  0  0  0
  1  2  2  0  0  0  0
  2  3  1  0  0  0  0
  2 23  1  0  0  0  0
  3  4  1  0  0  0  0
  4  5  1  0  0  0  0
  5  6  1  0  0  0  0
  5 22  1  0  0  0  0
  5 24  1  0  0  0  0
  6  7  1  0  0  0  0
  6 18  1  0  0  0  0
  7  8  1  0  0  0  0
  7 20  1  0  0  0  0
  8  9  1  0  0  0  0
  8 16  1  0  0  0  0
  9 10  1  0  0  0  0
 10 11  1  0  0  0  0
 11 12  1  0  0  0  0
 11 16  1  0  0  0  0
 12 13  2  0  0  0  0
 12 14  1  0  0  0  0
 14 15  1  0  0  0  0
 16 17  1  0  0  0  0
 16 19  1  0  0  0  0
 17 18  1  0  0  0  0
 20 21  1  0  0  0  0
 21 22  1  0  0  0  0
 22 23  2  0  0  0  0
M  END
>  <Name_Molregno>
DOC

>  <5-HT2A>
8.85

>  <5-HT2C>
8.7

$$$$
DOET
  Marvin  02231216192D 0   1.00000     0.00000     0

 16 16  0  0  1  0  0  0  0  0999 V2000
    1.8129    2.0670    0.0000 O   0  0  0  0  0  0  0  0  0
    2.5274    1.6545    0.0000 C   0  0  0  0  0  0  0  0  0
    1.0985    1.6545    0.0000 C   0  0  0  0  0  0  0  0  0
    1.0985    0.8295    0.0000 C   0  0  0  0  0  0  0  0  0
    0.3840    0.4170    0.0000 C   0  0  0  0  0  0  0  0  0
    0.3840   -0.4080    0.0000 C   0  0  0  0  0  0  0  0  0
   -0.3305   -0.8205    0.0000 C   0  0  0  0  0  0  0  0  0
   -0.3305    0.8295    0.0000 C   0  0  0  0  0  0  0  0  0
   -1.0449    0.4170    0.0000 O   0  0  0  0  0  0  0  0  0
   -1.7594    0.8295    0.0000 C   0  0  0  0  0  0  0  0  0
   -0.3305    1.6545    0.0000 C   0  0  0  0  0  0  0  0  0
    0.3840    2.0670    0.0000 C   0  0  0  0  0  0  0  0  0
    0.3840    2.8920    0.0000 C   0  0  0  0  0  0  0  0  0
    1.0985    3.3045    0.0000 C   0  0  0  0  0  0  0  0  0
    1.8129    2.8920    0.0000 N   0  0  0  0  0  0  0  0  0
    1.0985    4.1295    0.0000 C   0  0  0  0  0  0  0  0  0
  1  2  1  0  0  0  0
  1  3  1  0  0  0  0
  3  4  4  0  0  0  0
  3 12  4  0  0  0  0
  4  5  4  0  0  0  0
  5  6  1  0  0  0  0
  5  8  4  0  0  0  0
  6  7  1  0  0  0  0
  8  9  1  0  0  0  0
  8 11  4  0  0  0  0
  9 10  1  0  0  0  0
 11 12  4  0  0  0  0
 12 13  1  0  0  0  0
 13 14  1  0  0  0  0
 14 15  1  0  0  0  0
 14 16  1  0  0  0  0
M  END
>  <Name_Molregno>
DOET

>  <5-HT2A>
7.28

$$$$
DOM
  Marvin  02231216192D 0   1.00000     0.00000     0

 15 15  0  0  1  0  0  0  0  0999 V2000
    1.2331    1.9597    0.0000 O   0  0  0  0  0  0  0  0  0
    1.2331    2.7847    0.0000 C   0  0  0  0  0  0  0  0  0
    0.5186    1.5472    0.0000 C   0  0  0  0  0  0  0  0  0
    0.5186    0.7222    0.0000 C   0  0  0  0  0  0  0  0  0
   -0.1958    0.3097    0.0000 C   0  0  0  0  0  0  0  0  0
   -0.1958   -0.5153    0.0000 C   0  0  0  0  0  0  0  0  0
   -0.9103    0.7223    0.0000 C   0  0  0  0  0  0  0  0  0
   -1.6248    0.3098    0.0000 O   0  0  0  0  0  0  0  0  0
   -1.6248   -0.5152    0.0000 C   0  0  0  0  0  0  0  0  0
   -0.9103    1.5473    0.0000 C   0  0  0  0  0  0  0  0  0
   -0.1958    1.9598    0.0000 C   0  0  0  0  0  0  0  0  0
   -0.1958    2.7848    0.0000 C   0  0  0  0  0  0  0  0  0
   -0.9103    3.1973    0.0000 C   0  0  0  0  0  0  0  0  0
   -1.6248    2.7848    0.0000 N   0  0  0  0  0  0  0  0  0
   -0.9103    4.0223    0.0000 C   0  0  0  0  0  0  0  0  0
  1  2  1  0  0  0  0
  1  3  1  0  0  0  0
  3  4  4  0  0  0  0
  3 11  4  0  0  0  0
  4  5  4  0  0  0  0
  5  6  1  0  0  0  0
  5  7  4  0  0  0  0
  7  8  1  0  0  0  0
  7 10  4  0  0  0  0
  8  9  1  0  0  0  0
 10 11  4  0  0  0  0
 11 12  1  0  0  0  0
 12 13  1  0  0  0  0
 13 14  1  0  0  0  0
 13 15  1  0  0  0  0
M  END
>  <Name_Molregno>
DOM

>  <5-HT1A>
5.14

>  <5-HT2A>
6.99

$$$$
DOPAMINE
  Marvin  02231216192D 0   1.00000     0.00000     0

 11 11  0  0  0  0  0  0  0  0999 V2000
    3.1358    1.8244    0.0000 O   0  0  0  0  0  0  0  0  0
    2.4213    1.4119    0.0000 C   0  0  0  0  0  0  0  0  0
    2.4213    0.5869    0.0000 C   0  0  0  0  0  0  0  0  0
    1.7068    0.1744    0.0000 C   0  0  0  0  0  0  0  0  0
    0.9924    0.5869    0.0000 C   0  0  0  0  0  0  0  0  0
    0.9924    1.4119    0.0000 C   0  0  0  0  0  0  0  0  0
    1.7068    1.8244    0.0000 C   0  0  0  0  0  0  0  0  0
    1.7068    2.6494    0.0000 O   0  0  0  0  0  0  0  0  0
    1.7068   -0.6506    0.0000 C   0  0  0  0  0  0  0  0  0
    0.9924   -1.0631    0.0000 C   0  0  0  0  0  0  0  0  0
    0.9924   -1.8881    0.0000 N   0  0  0  0  0  0  0  0  0
  1  2  1  0  0  0  0
  2  3  4  0  0  0  0
  2  7  4  0  0  0  0
  3  4  4  0  0  0  0
  4  5  4  0  0  0  0
  4  9  1  0  0  0  0
  5  6  4  0  0  0  0
  6  7  4  0  0  0  0
  7  8  1  0  0  0  0
  9 10  1  0  0  0  0
 10 11  1  0  0  0  0
M  END
>  <Name_Molregno>
DOPAMINE

>  <5-HT1A>
5.08

>  <5-HT2A>
5

>  <5-HT3>
5

>  <5-HT7>
5

>  <DOPAMINE D1>
5.72

>  <DOPAMINE D2>
6.7

>  <DOPAMINE D3>
7.41

>  <DOPAMINE D4>
7.64

>  <DOPAMINE D5>
6.64

>  <Dopamine transporter>
5.79

>  <Norepinephrine transporter>
6.49

$$$$
DP-5-CT
  Marvin  02231216192D 0   1.00000     0.00000     0

 21 22  0  0  0  0  0  0  0  0999 V2000
    0.9168   -2.9149    0.0000 O   0  0  0  0  0  0  0  0  0
    1.4689   -2.3018    0.0000 C   0  0  0  0  0  0  0  0  0
    1.2139   -1.5172    0.0000 N   0  0  0  0  0  0  0  0  0
    2.2758   -2.4734    0.0000 C   0  0  0  0  0  0  0  0  0
    2.8279   -1.8603    0.0000 C   0  0  0  0  0  0  0  0  0
    3.6348   -2.0318    0.0000 C   0  0  0  0  0  0  0  0  0
    3.8898   -2.8164    0.0000 C   0  0  0  0  0  0  0  0  0
    4.7148   -2.8164    0.0000 N   0  0  0  0  0  0  0  0  0
    4.9697   -2.0318    0.0000 C   0  0  0  0  0  0  0  0  0
    4.3023   -1.5469    0.0000 C   0  0  0  0  0  0  0  0  0
    4.3023   -0.7219    0.0000 C   0  0  0  0  0  0  0  0  0
    3.5878   -0.3094    0.0000 C   0  0  0  0  0  0  0  0  0
    3.5878    0.5156    0.0000 N   0  0  0  0  0  0  0  0  0
    2.8733    0.9281    0.0000 C   0  0  0  0  0  0  0  0  0
    2.8733    1.7531    0.0000 C   0  0  0  0  0  0  0  0  0
    2.1589    2.1656    0.0000 C   0  0  0  0  0  0  0  0  0
    4.3023    0.9281    0.0000 C   0  0  0  0  0  0  0  0  0
    4.3023    1.7531    0.0000 C   0  0  0  0  0  0  0  0  0
    5.0167    2.1656    0.0000 C   0  0  0  0  0  0  0  0  0
    3.3377   -3.4295    0.0000 C   0  0  0  0  0  0  0  0  0
    2.5308   -3.2580    0.0000 C   0  0  0  0  0  0  0  0  0
  1  2  2  0  0  0  0
  2  3  1  0  0  0  0
  2  4  1  0  0  0  0
  4  5  4  0  0  0  0
  4 21  4  0  0  0  0
  5  6  4  0  0  0  0
  6  7  4  0  0  0  0
  6 10  4  0  0  0  0
  7  8  4  0  0  0  0
  7 20  4  0  0  0  0
  8  9  4  0  0  0  0
  9 10  4  0  0  0  0
 10 11  1  0  0  0  0
 11 12  1  0  0  0  0
 12 13  1  0  0  0  0
 13 14  1  0  0  0  0
 13 17  1  0  0  0  0
 14 15  1  0  0  0  0
 15 16  1  0  0  0  0
 17 18  1  0  0  0  0
 18 19  1  0  0  0  0
 20 21  4  0  0  0  0
M  STY  1   1 DAT
M  SAL   1  1   8
M  SDT   1 MRV_IMPLICIT_H                                        
M  SDD   1     0.0000    0.0000    DR    ALL  0       0  
M  SED   1 IMPL_H1
M  END
>  <Name_Molregno>
DP-5-CT

>  <5-HT1B>
7.64

>  <5-HT1D>
7.64

>  <5-HT2A>
6.29

>  <5-HT2C>
6

$$$$
EPINEPHRINE
  Marvin  02231216192D 0   1.00000     0.00000     0

 13 13  0  0  1  0  0  0  0  0999 V2000
    3.1920    1.0753    0.0000 O   0  0  0  0  0  0  0  0  0
    2.4776    0.6628    0.0000 C   0  0  0  0  0  0  0  0  0
    2.4776   -0.1622    0.0000 C   0  0  0  0  0  0  0  0  0
    1.7631   -0.5747    0.0000 C   0  0  0  0  0  0  0  0  0
    1.0486   -0.1622    0.0000 C   0  0  0  0  0  0  0  0  0
    1.0486    0.6628    0.0000 C   0  0  0  0  0  0  0  0  0
    1.7631    1.0753    0.0000 C   0  0  0  0  0  0  0  0  0
    1.7631    1.9003    0.0000 O   0  0  0  0  0  0  0  0  0
    1.7631   -1.3997    0.0000 C   0  0  0  0  0  0  0  0  0
    1.0486   -1.8122    0.0000 O   0  0  0  0  0  0  0  0  0
    2.4776   -1.8122    0.0000 C   0  0  0  0  0  0  0  0  0
    2.4776   -2.6372    0.0000 N   0  0  0  0  0  0  0  0  0
    3.1920   -3.0497    0.0000 C   0  0  0  0  0  0  0  0  0
  1  2  1  0  0  0  0
  2  3  4  0  0  0  0
  2  7  4  0  0  0  0
  3  4  4  0  0  0  0
  4  5  4  0  0  0  0
  4  9  1  0  0  0  0
  5  6  4  0  0  0  0
  6  7  4  0  0  0  0
  7  8  1  0  0  0  0
  9 10  1  0  0  0  0
  9 11  1  0  0  0  0
 11 12  1  0  0  0  0
 12 13  1  0  0  0  0
M  END
>  <Name_Molregno>
EPINEPHRINE

>  <5-HT2A>
5

>  <5-HT7>
5

>  <Alpha-2A>
5.83

>  <Alpha-2B>
5.9

>  <Alpha-2C>
5.77

>  <Beta-1>
5.4

>  <Beta-2>
5.76

>  <Norepinephrine transporter>
5.43

$$$$
ERGOTAMINE
  Marvin  02231216192D 0   1.00000     0.00000     0

 43 50  0  0  1  0  0  0  0  0999 V2000
   -2.1239   -1.0172    0.0000 O   0  0  0  0  0  0  0  0  0
   -1.3035   -1.1045    0.0000 C   0  0  0  0  0  0  0  0  0
   -1.3025   -0.2795    0.0000 N   0  0  0  0  0  0  0  0  0
   -0.5876    0.1322    0.0000 C   0  0  0  0  0  0  0  0  0
    0.1264   -0.2812    0.0000 O   0  0  0  0  0  0  0  0  0
   -0.5866    0.9572    0.0000 C   0  0  0  0  0  0  0  0  0
    0.1284    1.3688    0.0000 C   0  0  0  0  0  0  0  0  0
    0.1294    2.1938    0.0000 C   0  0  0  0  0  0  0  0  0
   -0.5846    2.6072    0.0000 C   0  0  0  0  0  0  0  0  0
   -1.2996    2.1955    0.0000 N   0  0  0  0  0  0  0  0  0
   -1.3006    1.3705    0.0000 C   0  0  0  0  0  0  0  0  0
   -2.0136    2.6089    0.0000 C   0  0  0  0  0  0  0  0  0
   -0.5831    3.4313    0.0000 C   0  0  0  0  0  0  0  0  0
    0.1294    3.8438    0.0000 C   0  0  0  0  0  0  0  0  0
    0.8419    3.4313    0.0000 C   0  0  0  0  0  0  0  0  0
    0.8419    2.6063    0.0000 C   0  0  0  0  0  0  0  0  0
    1.5597    2.1938    0.0000 C   0  0  0  0  0  0  0  0  0
    2.2722    2.6063    0.0000 C   0  0  0  0  0  0  0  0  0
    2.2722    3.4313    0.0000 C   0  0  0  0  0  0  0  0  0
    1.5597    3.8438    0.0000 C   0  0  0  0  0  0  0  0  0
    1.2544    4.7010    0.0000 N   0  0  0  0  0  0  0  0  0
    0.4294    4.7010    0.0000 C   0  0  0  0  0  0  0  0  0
   -0.4830   -1.0192    0.0000 C   0  0  0  0  0  0  0  0  0
   -1.1330   -1.9116    0.0000 C   0  0  0  0  0  0  0  0  0
   -0.3797   -2.2481    0.0000 O   0  0  0  0  0  0  0  0  0
   -1.8479   -2.3233    0.0000 N   0  0  0  0  0  0  0  0  0
   -2.0204   -3.1301    0.0000 C   0  0  0  0  0  0  0  0  0
   -1.4080   -3.6828    0.0000 C   0  0  0  0  0  0  0  0  0
   -1.5805   -4.4896    0.0000 C   0  0  0  0  0  0  0  0  0
   -0.9681   -5.0424    0.0000 C   0  0  0  0  0  0  0  0  0
   -1.1406   -5.8491    0.0000 C   0  0  0  0  0  0  0  0  0
   -1.9255   -6.1031    0.0000 C   0  0  0  0  0  0  0  0  0
   -2.5379   -5.5504    0.0000 C   0  0  0  0  0  0  0  0  0
   -2.3654   -4.7436    0.0000 C   0  0  0  0  0  0  0  0  0
   -2.8054   -3.3841    0.0000 C   0  0  0  0  0  0  0  0  0
   -2.9779   -4.1908    0.0000 O   0  0  0  0  0  0  0  0  0
   -3.4178   -2.8313    0.0000 N   0  0  0  0  0  0  0  0  0
   -3.2453   -2.0245    0.0000 C   0  0  0  0  0  0  0  0  0
   -3.9593   -1.6112    0.0000 C   0  0  0  0  0  0  0  0  0
   -4.5730   -2.1625    0.0000 C   0  0  0  0  0  0  0  0  0
   -4.2384   -2.9165    0.0000 C   0  0  0  0  0  0  0  0  0
   -2.4604   -1.7705    0.0000 C   0  0  0  0  0  0  0  0  0
   -3.0117   -1.1568    0.0000 O   0  0  0  0  0  0  0  0  0
  1  2  1  0  0  0  0
  1 42  1  0  0  0  0
  2  3  1  0  0  0  0
  2 23  1  0  0  0  0
  2 24  1  0  0  0  0
  3  4  1  0  0  0  0
  4  5  2  0  0  0  0
  4  6  1  0  0  0  0
  6  7  1  0  0  0  0
  6 11  1  0  0  0  0
  7  8  2  0  0  0  0
  8  9  1  0  0  0  0
  8 16  1  0  0  0  0
  9 10  1  0  0  0  0
  9 13  1  0  0  0  0
 10 11  1  0  0  0  0
 10 12  1  0  0  0  0
 13 14  1  0  0  0  0
 14 15  4  0  0  0  0
 14 22  4  0  0  0  0
 15 16  4  0  0  0  0
 15 20  4  0  0  0  0
 16 17  4  0  0  0  0
 17 18  4  0  0  0  0
 18 19  4  0  0  0  0
 19 20  4  0  0  0  0
 20 21  4  0  0  0  0
 21 22  4  0  0  0  0
 24 25  2  0  0  0  0
 24 26  1  0  0  0  0
 26 27  1  0  0  0  0
 26 42  1  0  0  0  0
 27 28  1  0  0  0  0
 27 35  1  0  0  0  0
 28 29  1  0  0  0  0
 29 30  4  0  0  0  0
 29 34  4  0  0  0  0
 30 31  4  0  0  0  0
 31 32  4  0  0  0  0
 32 33  4  0  0  0  0
 33 34  4  0  0  0  0
 35 36  2  0  0  0  0
 35 37  1  0  0  0  0
 37 38  1  0  0  0  0
 37 41  1  0  0  0  0
 38 39  1  0  0  0  0
 38 42  1  0  0  0  0
 39 40  1  0  0  0  0
 40 41  1  0  0  0  0
 42 43  1  0  0  0  0
M  STY  1   1 DAT
M  SAL   1  1  21
M  SDT   1 MRV_IMPLICIT_H                                        
M  SDD   1     0.0000    0.0000    DR    ALL  0       0  
M  SED   1 IMPL_H1
M  END
>  <Name_Molregno>
ERGOTAMINE

>  <5-HT1A>
9.77

>  <5-HT1B>
8.33

>  <5-HT1D>
9

>  <5-HT1E>
6.58

>  <5-HT2A>
9.1

>  <5-HT2C>
8.37

>  <5-HT3>
5

>  <5-HT6>
7.92

>  <5-HT7>
5.89

>  <Alpha-1A>
5

>  <Alpha-1B>
5

>  <Alpha-2A>
6.97

>  <Alpha-2B>
7.05

>  <Alpha-2C>
5

>  <Beta-1>
5

>  <Beta-2>
5

>  <DOPAMINE D1>
5

>  <DOPAMINE D2>
5

>  <DOPAMINE D4>
5

>  <DOPAMINE D5>
6.77

>  <Dopamine transporter>
5

>  <HISTAMINE H1>
5

>  <HISTAMINE H2>
5

>  <Muscarinic acetylcholine receptor M1>
6.06

>  <Muscarinic acetylcholine receptor M2>
6.04

>  <Muscarinic acetylcholine receptor M3>
5

>  <Muscarinic acetylcholine receptor M4>
5

>  <Muscarinic acetylcholine receptor M5>
5

>  <Norepinephrine transporter>
5

>  <Serotonin transporter>
5

$$$$
ETORICOXIB
  Marvin  02231216192D 0   1.00000     0.00000     0

 24 26  0  0  0  0  0  0  0  0999 V2000
    1.3103    1.0543    0.0000 Cl  0  0  0  0  0  0  0  0  0
    1.3103    0.2293    0.0000 C   0  0  0  0  0  0  0  0  0
    2.0248   -0.1832    0.0000 C   0  0  0  0  0  0  0  0  0
    2.0248   -1.0082    0.0000 C   0  0  0  0  0  0  0  0  0
    1.3103   -1.4207    0.0000 C   0  0  0  0  0  0  0  0  0
    0.5958   -1.0082    0.0000 N   0  0  0  0  0  0  0  0  0
    0.5958   -0.1832    0.0000 C   0  0  0  0  0  0  0  0  0
    1.3103   -2.2457    0.0000 C   0  0  0  0  0  0  0  0  0
    2.0248   -2.6582    0.0000 C   0  0  0  0  0  0  0  0  0
    2.0248   -3.4832    0.0000 C   0  0  0  0  0  0  0  0  0
    1.3103   -3.8957    0.0000 C   0  0  0  0  0  0  0  0  0
    0.5958   -3.4832    0.0000 N   0  0  0  0  0  0  0  0  0
    0.5958   -2.6582    0.0000 C   0  0  0  0  0  0  0  0  0
    1.3103   -4.7207    0.0000 C   0  0  0  0  0  0  0  0  0
    2.7392   -1.4207    0.0000 C   0  0  0  0  0  0  0  0  0
    3.4537   -1.0082    0.0000 C   0  0  0  0  0  0  0  0  0
    4.1682   -1.4207    0.0000 C   0  0  0  0  0  0  0  0  0
    4.1682   -2.2457    0.0000 C   0  0  0  0  0  0  0  0  0
    4.8826   -2.6582    0.0000 S   0  0  0  0  0  0  0  0  0
    5.5971   -3.0707    0.0000 O   0  0  0  0  0  0  0  0  0
    4.4701   -3.3727    0.0000 O   0  0  0  0  0  0  0  0  0
    5.2951   -1.9437    0.0000 C   0  0  0  0  0  0  0  0  0
    3.4537   -2.6582    0.0000 C   0  0  0  0  0  0  0  0  0
    2.7392   -2.2457    0.0000 C   0  0  0  0  0  0  0  0  0
  1  2  1  0  0  0  0
  2  3  4  0  0  0  0
  2  7  4  0  0  0  0
  3  4  4  0  0  0  0
  4  5  4  0  0  0  0
  4 15  1  0  0  0  0
  5  6  4  0  0  0  0
  5  8  1  0  0  0  0
  6  7  4  0  0  0  0
  8  9  4  0  0  0  0
  8 13  4  0  0  0  0
  9 10  4  0  0  0  0
 10 11  4  0  0  0  0
 11 12  4  0  0  0  0
 11 14  1  0  0  0  0
 12 13  4  0  0  0  0
 15 16  4  0  0  0  0
 15 24  4  0  0  0  0
 16 17  4  0  0  0  0
 17 18  4  0  0  0  0
 18 19  1  0  0  0  0
 18 23  4  0  0  0  0
 19 20  2  0  0  0  0
 19 21  2  0  0  0  0
 19 22  1  0  0  0  0
 23 24  4  0  0  0  0
M  END
>  <Name_Molregno>
ETORICOXIB

>  <5-HT1A>
5

>  <5-HT1B>
5

>  <5-HT1D>
5

>  <5-HT1E>
5

>  <5-HT2A>
5

>  <5-HT3>
5

>  <5-HT6>
5

>  <5-HT7>
5

>  <Alpha-1A>
5

>  <Alpha-1B>
5

>  <Alpha-2A>
5

>  <Alpha-2B>
5

>  <Alpha-2C>
5

>  <DOPAMINE D1>
5

>  <DOPAMINE D2>
5

>  <DOPAMINE D5>
5

>  <Dopamine transporter>
5

>  <HISTAMINE H2>
5

>  <HISTAMINE H4>
5

>  <Muscarinic acetylcholine receptor M1>
5

>  <Norepinephrine transporter>
5

>  <Serotonin transporter>
5

$$$$
FLUOXETINE
  Marvin  02231216192D 0   1.00000     0.00000     0

 22 23  0  0  1  0  0  0  0  0999 V2000
    0.2470    0.2265    0.0000 F   0  0  0  0  0  0  0  0  0
    0.9615   -0.1860    0.0000 C   0  0  0  0  0  0  0  0  0
    0.5490   -0.9005    0.0000 F   0  0  0  0  0  0  0  0  0
    1.3740    0.5285    0.0000 F   0  0  0  0  0  0  0  0  0
    1.6760   -0.5985    0.0000 C   0  0  0  0  0  0  0  0  0
    2.3904   -0.1860    0.0000 C   0  0  0  0  0  0  0  0  0
    3.1049   -0.5985    0.0000 C   0  0  0  0  0  0  0  0  0
    3.1049   -1.4235    0.0000 C   0  0  0  0  0  0  0  0  0
    3.8194   -1.8360    0.0000 O   0  0  0  0  0  0  0  0  0
    4.5339   -1.4235    0.0000 C   0  0  0  0  0  0  0  0  0
    5.2483   -1.8360    0.0000 C   0  0  0  0  0  0  0  0  0
    5.9628   -1.4235    0.0000 C   0  0  0  0  0  0  0  0  0
    6.6773   -1.8360    0.0000 N   0  0  0  0  0  0  0  0  0
    7.3917   -1.4235    0.0000 C   0  0  0  0  0  0  0  0  0
    4.5339   -0.5985    0.0000 C   0  0  0  0  0  0  0  0  0
    3.8194   -0.1860    0.0000 C   0  0  0  0  0  0  0  0  0
    3.8194    0.6390    0.0000 C   0  0  0  0  0  0  0  0  0
    4.5339    1.0515    0.0000 C   0  0  0  0  0  0  0  0  0
    5.2483    0.6390    0.0000 C   0  0  0  0  0  0  0  0  0
    5.2483   -0.1860    0.0000 C   0  0  0  0  0  0  0  0  0
    2.3904   -1.8360    0.0000 C   0  0  0  0  0  0  0  0  0
    1.6760   -1.4235    0.0000 C   0  0  0  0  0  0  0  0  0
  1  2  1  0  0  0  0
  2  3  1  0  0  0  0
  2  4  1  0  0  0  0
  2  5  1  0  0  0  0
  5  6  4  0  0  0  0
  5 22  4  0  0  0  0
  6  7  4  0  0  0  0
  7  8  4  0  0  0  0
  8  9  1  0  0  0  0
  8 21  4  0  0  0  0
  9 10  1  0  0  0  0
 10 11  1  0  0  0  0
 10 15  1  0  0  0  0
 11 12  1  0  0  0  0
 12 13  1  0  0  0  0
 13 14  1  0  0  0  0
 15 16  4  0  0  0  0
 15 20  4  0  0  0  0
 16 17  4  0  0  0  0
 17 18  4  0  0  0  0
 18 19  4  0  0  0  0
 19 20  4  0  0  0  0
 21 22  4  0  0  0  0
M  END
>  <Name_Molregno>
FLUOXETINE

>  <5-HT1A>
5

>  <5-HT2A>
6.72

>  <5-HT2C>
6.67

>  <Alpha-2A>
8.2

>  <DOPAMINE D2>
5

>  <Dopamine transporter>
5.32

>  <HISTAMINE H1>
5.62

>  <HISTAMINE H3>
5.14

>  <Muscarinic acetylcholine receptor M1>
6.05

>  <Muscarinic acetylcholine receptor M2>
5.57

>  <Muscarinic acetylcholine receptor M3>
6

>  <Muscarinic acetylcholine receptor M4>
5.54

>  <Muscarinic acetylcholine receptor M5>
5.57

>  <Norepinephrine transporter>
6.05

>  <Serotonin transporter>
8.57

$$$$
Fluparoxan
  Marvin  02231216192D 0   1.00000     0.00000     0

 14 16  0  0  1  0  0  0  0  0999 V2000
   -2.9096    0.8157    0.0000 F   0  0  0  0  0  0  0  0  0
   -2.9096   -0.0093    0.0000 C   0  0  0  0  0  0  0  0  0
   -2.1951   -0.4218    0.0000 C   0  0  0  0  0  0  0  0  0
   -1.4806   -0.0093    0.0000 O   0  0  0  0  0  0  0  0  0
   -0.7662   -0.4218    0.0000 C   0  0  0  0  0  0  0  0  0
   -0.7662   -1.2468    0.0000 C   0  0  0  0  0  0  0  0  0
   -1.4806   -1.6593    0.0000 O   0  0  0  0  0  0  0  0  0
   -2.1951   -1.2468    0.0000 C   0  0  0  0  0  0  0  0  0
   -2.9096   -1.6593    0.0000 C   0  0  0  0  0  0  0  0  0
   -3.6240   -1.2468    0.0000 C   0  0  0  0  0  0  0  0  0
   -3.6240   -0.4218    0.0000 C   0  0  0  0  0  0  0  0  0
    0.0185   -1.5018    0.0000 C   0  0  0  0  0  0  0  0  0
    0.5034   -0.8343    0.0000 N   0  0  0  0  0  0  0  0  0
    0.0185   -0.1669    0.0000 C   0  0  0  0  0  0  0  0  0
  1  2  1  0  0  0  0
  2  3  4  0  0  0  0
  2 11  4  0  0  0  0
  3  4  1  0  0  0  0
  3  8  4  0  0  0  0
  4  5  1  0  0  0  0
  5  6  1  0  0  0  0
  5 14  1  0  0  0  0
  6  7  1  0  0  0  0
  6 12  1  0  0  0  0
  7  8  1  0  0  0  0
  8  9  4  0  0  0  0
  9 10  4  0  0  0  0
 10 11  4  0  0  0  0
 12 13  1  0  0  0  0
 13 14  1  0  0  0  0
M  END
>  <Name_Molregno>
Fluparoxan

>  <5-HT1A>
6.8

>  <5-HT1B>
6

>  <5-HT1D>
6

>  <5-HT2A>
6

>  <5-HT2C>
6

>  <Alpha-1A>
6.3

>  <Alpha-1B>
6

>  <Alpha-2A>
8.13

>  <Alpha-2B>
8.9

>  <Alpha-2C>
8.8

>  <DOPAMINE D2>
6

>  <DOPAMINE D3>
6

>  <Serotonin transporter>
6

$$$$
FLUPENTHIXOL-Alpha
  Marvin  02231216192D 0   1.00000     0.00000     0

 30 33  0  0  0  0  0  0  0  0999 V2000
    2.2729   -3.8406    0.0000 S   0  0  0  0  0  0  0  0  0
    2.9874   -3.4281    0.0000 C   0  0  0  0  0  0  0  0  0
    2.9874   -2.6031    0.0000 C   0  0  0  0  0  0  0  0  0
    3.7018   -2.1906    0.0000 C   0  0  0  0  0  0  0  0  0
    4.4163   -2.6031    0.0000 C   0  0  0  0  0  0  0  0  0
    4.4163   -3.4281    0.0000 C   0  0  0  0  0  0  0  0  0
    3.7018   -3.8406    0.0000 C   0  0  0  0  0  0  0  0  0
    5.1308   -2.1906    0.0000 C   0  0  0  0  0  0  0  0  0
    5.8453   -1.7781    0.0000 F   0  0  0  0  0  0  0  0  0
    4.7183   -1.4762    0.0000 F   0  0  0  0  0  0  0  0  0
    5.5433   -2.9051    0.0000 F   0  0  0  0  0  0  0  0  0
    2.2729   -2.1906    0.0000 C   0  0  0  0  0  0  0  0  0
    1.5584   -2.6031    0.0000 C   0  0  0  0  0  0  0  0  0
    1.5584   -3.4281    0.0000 C   0  0  0  0  0  0  0  0  0
    0.8440   -3.8406    0.0000 C   0  0  0  0  0  0  0  0  0
    0.1295   -3.4281    0.0000 C   0  0  0  0  0  0  0  0  0
    0.1295   -2.6031    0.0000 C   0  0  0  0  0  0  0  0  0
    0.8440   -2.1906    0.0000 C   0  0  0  0  0  0  0  0  0
    2.2729   -1.3656    0.0000 C   0  0  0  0  0  0  0  0  0
    1.5584   -0.9531    0.0000 C   0  0  0  0  0  0  0  0  0
    0.8440   -1.3656    0.0000 C   0  0  0  0  0  0  0  0  0
    0.1295   -0.9531    0.0000 N   0  0  0  0  0  0  0  0  0
   -0.5850   -1.3656    0.0000 C   0  0  0  0  0  0  0  0  0
   -1.2994   -0.9531    0.0000 C   0  0  0  0  0  0  0  0  0
   -1.2994   -0.1281    0.0000 N   0  0  0  0  0  0  0  0  0
   -0.5850    0.2844    0.0000 C   0  0  0  0  0  0  0  0  0
    0.1295   -0.1281    0.0000 C   0  0  0  0  0  0  0  0  0
   -2.0139    0.2844    0.0000 C   0  0  0  0  0  0  0  0  0
   -2.0139    1.1094    0.0000 C   0  0  0  0  0  0  0  0  0
   -2.7284    1.5219    0.0000 O   0  0  0  0  0  0  0  0  0
  1  2  1  0  0  0  0
  1 14  1  0  0  0  0
  2  3  4  0  0  0  0
  2  7  4  0  0  0  0
  3  4  4  0  0  0  0
  3 12  1  0  0  0  0
  4  5  4  0  0  0  0
  5  6  4  0  0  0  0
  5  8  1  0  0  0  0
  6  7  4  0  0  0  0
  8  9  1  0  0  0  0
  8 10  1  0  0  0  0
  8 11  1  0  0  0  0
 12 13  1  0  0  0  0
 12 19  2  0  0  0  0
 13 14  4  0  0  0  0
 13 18  4  0  0  0  0
 14 15  4  0  0  0  0
 15 16  4  0  0  0  0
 16 17  4  0  0  0  0
 17 18  4  0  0  0  0
 19 20  1  0  0  0  0
 20 21  1  0  0  0  0
 21 22  1  0  0  0  0
 22 23  1  0  0  0  0
 22 27  1  0  0  0  0
 23 24  1  0  0  0  0
 24 25  1  0  0  0  0
 25 26  1  0  0  0  0
 25 28  1  0  0  0  0
 26 27  1  0  0  0  0
 28 29  1  0  0  0  0
 29 30  1  0  0  0  0
M  END
>  <Name_Molregno>
FLUPENTHIXOL-Alpha

>  <5-HT1A>
5.1

>  <5-HT2A>
7.06

>  <DOPAMINE D1>
8.44

>  <DOPAMINE D2>
8.74

>  <DOPAMINE D3>
8.15

>  <DOPAMINE D4>
7.23

>  <DOPAMINE D5>
8.1

>  <HISTAMINE H1>
8.65

$$$$
FLUPHENAZINE
  Marvin  02231216192D 0   1.00000     0.00000     0

 38 41  0  0  0  0  0  0  0  0999 V2000
   -7.1492   -1.5262    0.0000 S   0  0  0  0  0  0  0  0  0
   -7.1492   -2.3512    0.0000 C   0  0  0  0  0  0  0  0  0
   -6.4348   -2.7637    0.0000 C   0  0  0  0  0  0  0  0  0
   -5.7203   -2.3512    0.0000 N   0  0  0  0  0  0  0  0  0
   -5.7203   -1.5262    0.0000 C   0  0  0  0  0  0  0  0  0
   -6.4348   -1.1137    0.0000 C   0  0  0  0  0  0  0  0  0
   -6.4348   -0.2887    0.0000 C   0  0  0  0  0  0  0  0  0
   -5.7203    0.1238    0.0000 C   0  0  0  0  0  0  0  0  0
   -5.0058   -0.2887    0.0000 C   0  0  0  0  0  0  0  0  0
   -5.0058   -1.1137    0.0000 C   0  0  0  0  0  0  0  0  0
   -5.0058   -2.7637    0.0000 C   0  0  0  0  0  0  0  0  0
   -4.2914   -2.3512    0.0000 C   0  0  0  0  0  0  0  0  0
   -3.5769   -2.7637    0.0000 C   0  0  0  0  0  0  0  0  0
   -2.8624   -2.3512    0.0000 N   0  0  0  0  0  0  0  0  0
   -2.8624   -1.5262    0.0000 C   0  0  0  0  0  0  0  0  0
   -2.1479   -1.1137    0.0000 C   0  0  0  0  0  0  0  0  0
   -1.4335   -1.5262    0.0000 N   0  0  0  0  0  0  0  0  0
   -1.4335   -2.3512    0.0000 C   0  0  0  0  0  0  0  0  0
   -2.1479   -2.7637    0.0000 C   0  0  0  0  0  0  0  0  0
   -0.7190   -1.1137    0.0000 C   0  0  0  0  0  0  0  0  0
   -0.0045   -1.5262    0.0000 C   0  0  0  0  0  0  0  0  0
    0.7099   -1.1137    0.0000 O   0  0  0  0  0  0  0  0  0
    1.4244   -1.5262    0.0000 C   0  0  0  0  0  0  0  0  0
    1.4244   -2.3512    0.0000 O   0  0  0  0  0  0  0  0  0
    2.1389   -1.1137    0.0000 C   0  0  0  0  0  0  0  0  0
    2.8534   -1.5262    0.0000 C   0  0  0  0  0  0  0  0  0
    3.5678   -1.1137    0.0000 C   0  0  0  0  0  0  0  0  0
    4.2823   -1.5262    0.0000 C   0  0  0  0  0  0  0  0  0
    4.9968   -1.1137    0.0000 C   0  0  0  0  0  0  0  0  0
    5.7112   -1.5262    0.0000 C   0  0  0  0  0  0  0  0  0
   -6.4348   -3.5887    0.0000 C   0  0  0  0  0  0  0  0  0
   -7.1492   -4.0012    0.0000 C   0  0  0  0  0  0  0  0  0
   -7.8637   -3.5887    0.0000 C   0  0  0  0  0  0  0  0  0
   -7.8637   -2.7637    0.0000 C   0  0  0  0  0  0  0  0  0
   -7.1492   -4.8262    0.0000 C   0  0  0  0  0  0  0  0  0
   -7.1492   -5.6512    0.0000 F   0  0  0  0  0  0  0  0  0
   -7.9742   -4.8262    0.0000 F   0  0  0  0  0  0  0  0  0
   -6.3242   -4.8262    0.0000 F   0  0  0  0  0  0  0  0  0
  1  2  1  0  0  0  0
  1  6  1  0  0  0  0
  2  3  4  0  0  0  0
  2 34  4  0  0  0  0
  3  4  1  0  0  0  0
  3 31  4  0  0  0  0
  4  5  1  0  0  0  0
  4 11  1  0  0  0  0
  5  6  4  0  0  0  0
  5 10  4  0  0  0  0
  6  7  4  0  0  0  0
  7  8  4  0  0  0  0
  8  9  4  0  0  0  0
  9 10  4  0  0  0  0
 11 12  1  0  0  0  0
 12 13  1  0  0  0  0
 13 14  1  0  0  0  0
 14 15  1  0  0  0  0
 14 19  1  0  0  0  0
 15 16  1  0  0  0  0
 16 17  1  0  0  0  0
 17 18  1  0  0  0  0
 17 20  1  0  0  0  0
 18 19  1  0  0  0  0
 20 21  1  0  0  0  0
 21 22  1  0  0  0  0
 22 23  1  0  0  0  0
 23 24  2  0  0  0  0
 23 25  1  0  0  0  0
 25 26  1  0  0  0  0
 26 27  1  0  0  0  0
 27 28  1  0  0  0  0
 28 29  1  0  0  0  0
 29 30  1  0  0  0  0
 31 32  4  0  0  0  0
 32 33  4  0  0  0  0
 32 35  1  0  0  0  0
 33 34  4  0  0  0  0
 35 36  1  0  0  0  0
 35 37  1  0  0  0  0
 35 38  1  0  0  0  0
M  END
>  <Name_Molregno>
FLUPHENAZINE

>  <5-HT1A>
6.41

>  <5-HT1B>
6.48

>  <5-HT1D>
6.48

>  <5-HT1E>
6.27

>  <5-HT2A>
7.87

>  <5-HT2C>
6.05

>  <5-HT3>
5

>  <5-HT5>
6.84

>  <5-HT6>
7.46

>  <5-HT7>
8.1

>  <Alpha-1A>
8.19

>  <Alpha-1B>
7.89

>  <Alpha-2A>
6.5

>  <Alpha-2B>
7.09

>  <Alpha-2C>
7.54

>  <Beta-1>
5

>  <Beta-2>
5

>  <DOPAMINE D1>
7.55

>  <DOPAMINE D2>
9.22

>  <DOPAMINE D3>
9.33

>  <DOPAMINE D4>
7.52

>  <DOPAMINE D5>
7.82

>  <Dopamine transporter>
5

>  <HISTAMINE H1>
7.72

>  <HISTAMINE H2>
6.25

>  <HISTAMINE H3>
6

>  <HISTAMINE H4>
5

>  <Muscarinic acetylcholine receptor M1>
5.96

>  <Muscarinic acetylcholine receptor M2>
5.14

>  <Muscarinic acetylcholine receptor M3>
5.84

>  <Muscarinic acetylcholine receptor M4>
5.27

>  <Muscarinic acetylcholine receptor M5>
6.45

>  <Norepinephrine transporter>
5.51

>  <Serotonin transporter>
5.23

$$$$
FLUSPIRILENE
  Marvin  02231216192D 0   1.00000     0.00000     0

 35 39  0  0  0  0  0  0  0  0999 V2000
    3.1924   -2.1696    0.0000 F   0  0  0  0  0  0  0  0  0
    2.3674   -2.1696    0.0000 C   0  0  0  0  0  0  0  0  0
    1.9549   -2.8841    0.0000 C   0  0  0  0  0  0  0  0  0
    1.1299   -2.8841    0.0000 C   0  0  0  0  0  0  0  0  0
    0.7174   -2.1696    0.0000 C   0  0  0  0  0  0  0  0  0
    1.1299   -1.4552    0.0000 C   0  0  0  0  0  0  0  0  0
    1.9549   -1.4552    0.0000 C   0  0  0  0  0  0  0  0  0
   -0.1076   -2.1696    0.0000 C   0  0  0  0  0  0  0  0  0
   -0.5201   -2.8841    0.0000 C   0  0  0  0  0  0  0  0  0
   -1.3451   -2.8841    0.0000 C   0  0  0  0  0  0  0  0  0
   -1.7576   -3.5986    0.0000 C   0  0  0  0  0  0  0  0  0
   -2.5826   -3.5986    0.0000 N   0  0  0  0  0  0  0  0  0
   -2.9951   -4.3130    0.0000 C   0  0  0  0  0  0  0  0  0
   -3.8201   -4.3130    0.0000 C   0  0  0  0  0  0  0  0  0
   -4.2326   -3.5986    0.0000 C   0  0  0  0  0  0  0  0  0
   -4.7175   -4.2660    0.0000 N   0  0  0  0  0  0  0  0  0
   -5.5021   -4.0111    0.0000 C   0  0  0  0  0  0  0  0  0
   -5.5021   -3.1861    0.0000 N   0  0  0  0  0  0  0  0  0
   -4.7175   -2.9311    0.0000 C   0  0  0  0  0  0  0  0  0
   -4.4626   -2.1465    0.0000 O   0  0  0  0  0  0  0  0  0
   -4.4626   -5.0506    0.0000 C   0  0  0  0  0  0  0  0  0
   -3.6556   -5.2222    0.0000 C   0  0  0  0  0  0  0  0  0
   -3.4007   -6.0068    0.0000 C   0  0  0  0  0  0  0  0  0
   -3.9527   -6.6199    0.0000 C   0  0  0  0  0  0  0  0  0
   -4.7597   -6.4483    0.0000 C   0  0  0  0  0  0  0  0  0
   -5.0146   -5.6637    0.0000 C   0  0  0  0  0  0  0  0  0
   -3.8201   -2.8841    0.0000 C   0  0  0  0  0  0  0  0  0
   -2.9951   -2.8841    0.0000 C   0  0  0  0  0  0  0  0  0
   -0.5201   -1.4552    0.0000 C   0  0  0  0  0  0  0  0  0
   -1.3451   -1.4552    0.0000 C   0  0  0  0  0  0  0  0  0
   -1.7576   -0.7407    0.0000 C   0  0  0  0  0  0  0  0  0
   -1.3451   -0.0262    0.0000 C   0  0  0  0  0  0  0  0  0
   -1.7576    0.6883    0.0000 F   0  0  0  0  0  0  0  0  0
   -0.5201   -0.0262    0.0000 C   0  0  0  0  0  0  0  0  0
   -0.1076   -0.7407    0.0000 C   0  0  0  0  0  0  0  0  0
  1  2  1  0  0  0  0
  2  3  4  0  0  0  0
  2  7  4  0  0  0  0
  3  4  4  0  0  0  0
  4  5  4  0  0  0  0
  5  6  4  0  0  0  0
  5  8  1  0  0  0  0
  6  7  4  0  0  0  0
  8  9  1  0  0  0  0
  8 29  1  0  0  0  0
  9 10  1  0  0  0  0
 10 11  1  0  0  0  0
 11 12  1  0  0  0  0
 12 13  1  0  0  0  0
 12 28  1  0  0  0  0
 13 14  1  0  0  0  0
 14 15  1  0  0  0  0
 15 16  1  0  0  0  0
 15 19  1  0  0  0  0
 15 27  1  0  0  0  0
 16 17  1  0  0  0  0
 16 21  1  0  0  0  0
 17 18  1  0  0  0  0
 18 19  1  0  0  0  0
 19 20  2  0  0  0  0
 21 22  4  0  0  0  0
 21 26  4  0  0  0  0
 22 23  4  0  0  0  0
 23 24  4  0  0  0  0
 24 25  4  0  0  0  0
 25 26  4  0  0  0  0
 27 28  1  0  0  0  0
 29 30  4  0  0  0  0
 29 35  4  0  0  0  0
 30 31  4  0  0  0  0
 31 32  4  0  0  0  0
 32 33  1  0  0  0  0
 32 34  4  0  0  0  0
 34 35  4  0  0  0  0
M  END
>  <Name_Molregno>
FLUSPIRILENE

>  <5-HT1A>
7.25

>  <5-HT1B>
5.95

>  <5-HT1D>
5.3

>  <5-HT1E>
5.65

>  <5-HT2A>
8.02

>  <Alpha-2A>
6.24

>  <Alpha-2B>
7.32

>  <Alpha-2C>
7.21

>  <Beta-1>
6.23

>  <Beta-2>
6.29

>  <DOPAMINE D2>
9.37

>  <DOPAMINE D3>
8.73

>  <DOPAMINE D4>
8.26

>  <HISTAMINE H1>
7.92

>  <Serotonin transporter>
6

$$$$
GR113808
  Marvin  02231216192D 0   1.00000     0.00000     0

 27 29  0  0  0  0  0  0  0  0999 V2000
   -9.6217    1.1086    0.0000 S   0  0  0  0  0  0  0  0  0
  -10.3362    0.6961    0.0000 O   0  0  0  0  0  0  0  0  0
   -9.2092    0.3941    0.0000 O   0  0  0  0  0  0  0  0  0
   -8.9072    1.5211    0.0000 N   0  0  0  0  0  0  0  0  0
   -8.1928    1.1086    0.0000 C   0  0  0  0  0  0  0  0  0
   -7.4783    1.5211    0.0000 C   0  0  0  0  0  0  0  0  0
   -6.7638    1.1086    0.0000 N   0  0  0  0  0  0  0  0  0
   -6.0494    1.5211    0.0000 C   0  0  0  0  0  0  0  0  0
   -5.3349    1.1086    0.0000 C   0  0  0  0  0  0  0  0  0
   -5.3349    0.2836    0.0000 C   0  0  0  0  0  0  0  0  0
   -6.0494   -0.1289    0.0000 C   0  0  0  0  0  0  0  0  0
   -6.7638    0.2836    0.0000 C   0  0  0  0  0  0  0  0  0
   -4.6204   -0.1289    0.0000 C   0  0  0  0  0  0  0  0  0
   -3.9059    0.2836    0.0000 O   0  0  0  0  0  0  0  0  0
   -3.1915   -0.1289    0.0000 C   0  0  0  0  0  0  0  0  0
   -3.1915   -0.9539    0.0000 O   0  0  0  0  0  0  0  0  0
   -2.4770    0.2836    0.0000 C   0  0  0  0  0  0  0  0  0
   -1.7233   -0.0520    0.0000 C   0  0  0  0  0  0  0  0  0
   -1.1713    0.5611    0.0000 C   0  0  0  0  0  0  0  0  0
   -1.5838    1.2756    0.0000 N   0  0  0  0  0  0  0  0  0
   -2.3908    1.1041    0.0000 C   0  0  0  0  0  0  0  0  0
   -1.2482    2.0293    0.0000 C   0  0  0  0  0  0  0  0  0
   -0.3643    0.3896    0.0000 C   0  0  0  0  0  0  0  0  0
   -0.1094   -0.3950    0.0000 C   0  0  0  0  0  0  0  0  0
   -0.6614   -1.0081    0.0000 C   0  0  0  0  0  0  0  0  0
   -1.4684   -0.8366    0.0000 C   0  0  0  0  0  0  0  0  0
  -10.0342    1.8231    0.0000 C   0  0  0  0  0  0  0  0  0
  1  2  2  0  0  0  0
  1  3  2  0  0  0  0
  1  4  1  0  0  0  0
  1 27  1  0  0  0  0
  4  5  1  0  0  0  0
  5  6  1  0  0  0  0
  6  7  1  0  0  0  0
  7  8  1  0  0  0  0
  7 12  1  0  0  0  0
  8  9  1  0  0  0  0
  9 10  1  0  0  0  0
 10 11  1  0  0  0  0
 10 13  1  0  0  0  0
 11 12  1  0  0  0  0
 13 14  1  0  0  0  0
 14 15  1  0  0  0  0
 15 16  2  0  0  0  0
 15 17  1  0  0  0  0
 17 18  4  0  0  0  0
 17 21  4  0  0  0  0
 18 19  4  0  0  0  0
 18 26  4  0  0  0  0
 19 20  4  0  0  0  0
 19 23  4  0  0  0  0
 20 21  4  0  0  0  0
 20 22  1  0  0  0  0
 23 24  4  0  0  0  0
 24 25  4  0  0  0  0
 25 26  4  0  0  0  0
M  END
>  <Name_Molregno>
GR113808

>  <5-HT2A>
5

>  <5-HT2C>
5

$$$$
HALOPERIDOL
  Marvin  02231216192D 0   1.00000     0.00000     0

 26 28  0  0  0  0  0  0  0  0999 V2000
    1.7138    2.6466    0.0000 Cl  0  0  0  0  0  0  0  0  0
    1.9960    1.8714    0.0000 C   0  0  0  0  0  0  0  0  0
    2.8084    1.7281    0.0000 C   0  0  0  0  0  0  0  0  0
    3.0906    0.9529    0.0000 C   0  0  0  0  0  0  0  0  0
    2.5603    0.3209    0.0000 C   0  0  0  0  0  0  0  0  0
    1.7478    0.4642    0.0000 C   0  0  0  0  0  0  0  0  0
    1.4657    1.2394    0.0000 C   0  0  0  0  0  0  0  0  0
    2.8425   -0.4543    0.0000 C   0  0  0  0  0  0  0  0  0
    2.0300   -0.5976    0.0000 O   0  0  0  0  0  0  0  0  0
    3.5569   -0.0418    0.0000 C   0  0  0  0  0  0  0  0  0
    4.2714   -0.4543    0.0000 C   0  0  0  0  0  0  0  0  0
    4.2714   -1.2793    0.0000 N   0  0  0  0  0  0  0  0  0
    3.5569   -1.6918    0.0000 C   0  0  0  0  0  0  0  0  0
    2.8425   -1.2793    0.0000 C   0  0  0  0  0  0  0  0  0
    4.9859   -1.6918    0.0000 C   0  0  0  0  0  0  0  0  0
    5.7003   -1.2793    0.0000 C   0  0  0  0  0  0  0  0  0
    6.4148   -1.6918    0.0000 C   0  0  0  0  0  0  0  0  0
    7.1293   -1.2793    0.0000 C   0  0  0  0  0  0  0  0  0
    7.1293   -0.4543    0.0000 O   0  0  0  0  0  0  0  0  0
    7.8438   -1.6918    0.0000 C   0  0  0  0  0  0  0  0  0
    8.5582   -1.2793    0.0000 C   0  0  0  0  0  0  0  0  0
    9.2727   -1.6918    0.0000 C   0  0  0  0  0  0  0  0  0
    9.2727   -2.5168    0.0000 C   0  0  0  0  0  0  0  0  0
    9.9872   -2.9293    0.0000 F   0  0  0  0  0  0  0  0  0
    8.5582   -2.9293    0.0000 C   0  0  0  0  0  0  0  0  0
    7.8438   -2.5168    0.0000 C   0  0  0  0  0  0  0  0  0
  1  2  1  0  0  0  0
  2  3  4  0  0  0  0
  2  7  4  0  0  0  0
  3  4  4  0  0  0  0
  4  5  4  0  0  0  0
  5  6  4  0  0  0  0
  5  8  1  0  0  0  0
  6  7  4  0  0  0  0
  8  9  1  0  0  0  0
  8 10  1  0  0  0  0
  8 14  1  0  0  0  0
 10 11  1  0  0  0  0
 11 12  1  0  0  0  0
 12 13  1  0  0  0  0
 12 15  1  0  0  0  0
 13 14  1  0  0  0  0
 15 16  1  0  0  0  0
 16 17  1  0  0  0  0
 17 18  1  0  0  0  0
 18 19  2  0  0  0  0
 18 20  1  0  0  0  0
 20 21  4  0  0  0  0
 20 26  4  0  0  0  0
 21 22  4  0  0  0  0
 22 23  4  0  0  0  0
 23 24  1  0  0  0  0
 23 25  4  0  0  0  0
 25 26  4  0  0  0  0
M  END
>  <Name_Molregno>
HALOPERIDOL

>  <5-HT1A>
5.67

>  <5-HT1B>
6.63

>  <5-HT1D>
5.56

>  <5-HT1E>
5.15

>  <5-HT2A>
7.01

>  <5-HT2C>
5.24

>  <5-HT3>
5

>  <5-HT5>
5.65

>  <5-HT6>
5.28

>  <5-HT7>
6.32

>  <Alpha-1A>
7.92

>  <Alpha-1B>
8.1

>  <Alpha-2A>
6.04

>  <Alpha-2B>
6.32

>  <Alpha-2C>
6.34

>  <Beta-1>
5

>  <Beta-2>
5.15

>  <DOPAMINE D1>
7.22

>  <DOPAMINE D2>
8.75

>  <DOPAMINE D3>
8.33

>  <DOPAMINE D4>
8.29

>  <DOPAMINE D5>
7.03

>  <Dopamine transporter>
5

>  <HISTAMINE H1>
6.04

>  <HISTAMINE H2>
6

>  <HISTAMINE H4>
5

>  <Muscarinic acetylcholine receptor M1>
5.4

>  <Muscarinic acetylcholine receptor M2>
5

>  <Muscarinic acetylcholine receptor M3>
5

>  <Muscarinic acetylcholine receptor M4>
5

>  <Muscarinic acetylcholine receptor M5>
5.59

>  <Norepinephrine transporter>
5.68

>  <Serotonin transporter>
5.74

$$$$
HISTAMINE
  Marvin  02231216192D 0   1.00000     0.00000     0

  8  8  0  0  0  0  0  0  0  0999 V2000
    1.0236   -1.0521    0.0000 N   0  0  0  0  0  0  0  0  0
    0.7687   -1.8367    0.0000 C   0  0  0  0  0  0  0  0  0
   -0.0563   -1.8367    0.0000 N   0  0  0  0  0  0  0  0  0
   -0.3113   -1.0521    0.0000 C   0  0  0  0  0  0  0  0  0
    0.3562   -0.5672    0.0000 C   0  0  0  0  0  0  0  0  0
    0.3562    0.2578    0.0000 C   0  0  0  0  0  0  0  0  0
    1.0706    0.6703    0.0000 C   0  0  0  0  0  0  0  0  0
    1.0706    1.4953    0.0000 N   0  0  0  0  0  0  0  0  0
  1  2  4  0  0  0  0
  1  5  4  0  0  0  0
  2  3  4  0  0  0  0
  3  4  4  0  0  0  0
  4  5  4  0  0  0  0
  5  6  1  0  0  0  0
  6  7  1  0  0  0  0
  7  8  1  0  0  0  0
M  STY  1   1 DAT
M  SAL   1  1   1
M  SDT   1 MRV_IMPLICIT_H                                        
M  SDD   1     0.0000    0.0000    DR    ALL  0       0  
M  SED   1 IMPL_H1
M  END
>  <Name_Molregno>
HISTAMINE

>  <5-HT2A>
5

>  <5-HT3>
5

>  <5-HT7>
5

>  <HISTAMINE H1>
5.5

>  <HISTAMINE H2>
5

>  <HISTAMINE H3>
7.87

>  <HISTAMINE H4>
7.46

$$$$
ibuprofen
  Marvin  02231216192D 0   1.00000     0.00000     0

 15 15  0  0  1  0  0  0  0  0999 V2000
    3.0591   -3.4943    0.0000 O   0  0  0  0  0  0  0  0  0
    3.0591   -2.6693    0.0000 C   0  0  0  0  0  0  0  0  0
    3.7735   -2.2568    0.0000 O   0  0  0  0  0  0  0  0  0
    2.3446   -2.2568    0.0000 C   0  0  0  0  0  0  0  0  0
    1.6301   -2.6693    0.0000 C   0  0  0  0  0  0  0  0  0
    2.3446   -1.4318    0.0000 C   0  0  0  0  0  0  0  0  0
    1.6301   -1.0193    0.0000 C   0  0  0  0  0  0  0  0  0
    1.6301   -0.1943    0.0000 C   0  0  0  0  0  0  0  0  0
    2.3446    0.2182    0.0000 C   0  0  0  0  0  0  0  0  0
    3.0591   -0.1943    0.0000 C   0  0  0  0  0  0  0  0  0
    3.0591   -1.0193    0.0000 C   0  0  0  0  0  0  0  0  0
    2.3446    1.0432    0.0000 C   0  0  0  0  0  0  0  0  0
    3.0591    1.4557    0.0000 C   0  0  0  0  0  0  0  0  0
    3.0591    2.2807    0.0000 C   0  0  0  0  0  0  0  0  0
    3.7735    1.0432    0.0000 C   0  0  0  0  0  0  0  0  0
  1  2  1  0  0  0  0
  2  3  2  0  0  0  0
  2  4  1  0  0  0  0
  4  5  1  0  0  0  0
  4  6  1  0  0  0  0
  6  7  4  0  0  0  0
  6 11  4  0  0  0  0
  7  8  4  0  0  0  0
  8  9  4  0  0  0  0
  9 10  4  0  0  0  0
  9 12  1  0  0  0  0
 10 11  4  0  0  0  0
 12 13  1  0  0  0  0
 13 14  1  0  0  0  0
 13 15  1  0  0  0  0
M  END
>  <Name_Molregno>
ibuprofen

>  <5-HT1A>
5

>  <5-HT1B>
5

>  <5-HT1D>
5

>  <5-HT1E>
5

>  <5-HT2A>
5

>  <5-HT3>
5

>  <5-HT6>
5

>  <5-HT7>
5

>  <Alpha-1A>
5

>  <Alpha-1B>
5

>  <Alpha-2A>
5

>  <Alpha-2B>
5

>  <Alpha-2C>
5

>  <DOPAMINE D1>
5

>  <DOPAMINE D2>
5

>  <DOPAMINE D4>
5

>  <DOPAMINE D5>
5

>  <Dopamine transporter>
5

>  <HISTAMINE H1>
5

>  <HISTAMINE H2>
5

>  <Muscarinic acetylcholine receptor M2>
5

>  <Muscarinic acetylcholine receptor M5>
5

>  <Norepinephrine transporter>
5

>  <Serotonin transporter>
5

$$$$
ILOPERIDONE
  Marvin  02231216192D 0   1.00000     0.00000     0

 31 34  0  0  0  0  0  0  0  0999 V2000
    9.8408   -5.0338    0.0000 F   0  0  0  0  0  0  0  0  0
    9.1263   -4.6213    0.0000 C   0  0  0  0  0  0  0  0  0
    8.4119   -5.0338    0.0000 C   0  0  0  0  0  0  0  0  0
    7.6974   -4.6213    0.0000 C   0  0  0  0  0  0  0  0  0
    6.9128   -4.8762    0.0000 O   0  0  0  0  0  0  0  0  0
    6.4279   -4.2088    0.0000 N   0  0  0  0  0  0  0  0  0
    6.9128   -3.5413    0.0000 C   0  0  0  0  0  0  0  0  0
    7.6974   -3.7963    0.0000 C   0  0  0  0  0  0  0  0  0
    8.4119   -3.3838    0.0000 C   0  0  0  0  0  0  0  0  0
    9.1263   -3.7963    0.0000 C   0  0  0  0  0  0  0  0  0
    6.6578   -2.7567    0.0000 C   0  0  0  0  0  0  0  0  0
    5.8509   -2.5852    0.0000 C   0  0  0  0  0  0  0  0  0
    5.5959   -1.8006    0.0000 C   0  0  0  0  0  0  0  0  0
    6.1480   -1.1875    0.0000 N   0  0  0  0  0  0  0  0  0
    6.9549   -1.3590    0.0000 C   0  0  0  0  0  0  0  0  0
    7.2099   -2.1436    0.0000 C   0  0  0  0  0  0  0  0  0
    5.8930   -0.4028    0.0000 C   0  0  0  0  0  0  0  0  0
    5.0861   -0.2313    0.0000 C   0  0  0  0  0  0  0  0  0
    4.8311    0.5533    0.0000 C   0  0  0  0  0  0  0  0  0
    4.0241    0.7248    0.0000 O   0  0  0  0  0  0  0  0  0
    3.7692    1.5095    0.0000 C   0  0  0  0  0  0  0  0  0
    2.9622    1.6810    0.0000 C   0  0  0  0  0  0  0  0  0
    2.7073    2.4656    0.0000 C   0  0  0  0  0  0  0  0  0
    3.2593    3.0787    0.0000 C   0  0  0  0  0  0  0  0  0
    4.0663    2.9072    0.0000 C   0  0  0  0  0  0  0  0  0
    4.3212    2.1225    0.0000 C   0  0  0  0  0  0  0  0  0
    5.1282    1.9510    0.0000 O   0  0  0  0  0  0  0  0  0
    5.6802    2.5641    0.0000 C   0  0  0  0  0  0  0  0  0
    3.0044    3.8633    0.0000 C   0  0  0  0  0  0  0  0  0
    2.1974    4.0348    0.0000 O   0  0  0  0  0  0  0  0  0
    3.5564    4.4764    0.0000 C   0  0  0  0  0  0  0  0  0
  1  2  1  0  0  0  0
  2  3  4  0  0  0  0
  2 10  4  0  0  0  0
  3  4  4  0  0  0  0
  4  5  4  0  0  0  0
  4  8  4  0  0  0  0
  5  6  4  0  0  0  0
  6  7  4  0  0  0  0
  7  8  4  0  0  0  0
  7 11  1  0  0  0  0
  8  9  4  0  0  0  0
  9 10  4  0  0  0  0
 11 12  1  0  0  0  0
 11 16  1  0  0  0  0
 12 13  1  0  0  0  0
 13 14  1  0  0  0  0
 14 15  1  0  0  0  0
 14 17  1  0  0  0  0
 15 16  1  0  0  0  0
 17 18  1  0  0  0  0
 18 19  1  0  0  0  0
 19 20  1  0  0  0  0
 20 21  1  0  0  0  0
 21 22  4  0  0  0  0
 21 26  4  0  0  0  0
 22 23  4  0  0  0  0
 23 24  4  0  0  0  0
 24 25  4  0  0  0  0
 24 29  1  0  0  0  0
 25 26  4  0  0  0  0
 26 27  1  0  0  0  0
 27 28  1  0  0  0  0
 29 30  2  0  0  0  0
 29 31  1  0  0  0  0
M  END
>  <Name_Molregno>
ILOPERIDONE

>  <5-HT1A>
7.18

>  <5-HT1B>
7.05

>  <5-HT1D>
7.82

>  <5-HT2A>
9.46

>  <5-HT2C>
7.27

>  <5-HT3>
5

>  <5-HT6>
7.2

>  <5-HT7>
6.95

>  <Alpha-2A>
6.79

>  <Alpha-2B>
6.79

>  <Alpha-2C>
7.79

>  <Beta-1>
5

>  <Beta-2>
5

>  <DOPAMINE D1>
7.02

>  <DOPAMINE D2>
8.23

>  <DOPAMINE D3>
8

>  <DOPAMINE D4>
7.96

>  <DOPAMINE D5>
6.5

>  <Dopamine transporter>
5.53

>  <HISTAMINE H1>
7.91

>  <Muscarinic acetylcholine receptor M1>
5.31

>  <Muscarinic acetylcholine receptor M2>
5.48

>  <Muscarinic acetylcholine receptor M3>
5

>  <Muscarinic acetylcholine receptor M4>
5.08

>  <Muscarinic acetylcholine receptor M5>
5

>  <Norepinephrine transporter>
5.83

$$$$
ISOPRENALINE
  Marvin  02231216192D 0   1.00000     0.00000     0

 15 15  0  0  1  0  0  0  0  0999 V2000
   -0.0675    1.0405    0.0000 O   0  0  0  0  0  0  0  0  0
    0.6470    0.6280    0.0000 C   0  0  0  0  0  0  0  0  0
    1.3614    1.0405    0.0000 C   0  0  0  0  0  0  0  0  0
    2.0759    0.6280    0.0000 C   0  0  0  0  0  0  0  0  0
    2.0759   -0.1970    0.0000 C   0  0  0  0  0  0  0  0  0
    1.3614   -0.6095    0.0000 C   0  0  0  0  0  0  0  0  0
    0.6470   -0.1970    0.0000 C   0  0  0  0  0  0  0  0  0
   -0.0675   -0.6095    0.0000 O   0  0  0  0  0  0  0  0  0
    2.7904    1.0405    0.0000 C   0  0  0  0  0  0  0  0  0
    2.7904    1.8655    0.0000 O   0  0  0  0  0  0  0  0  0
    3.5049    0.6280    0.0000 C   0  0  0  0  0  0  0  0  0
    4.2193    1.0405    0.0000 N   0  0  0  0  0  0  0  0  0
    4.9338    0.6280    0.0000 C   0  0  0  0  0  0  0  0  0
    5.6483    1.0405    0.0000 C   0  0  0  0  0  0  0  0  0
    4.9338   -0.1970    0.0000 C   0  0  0  0  0  0  0  0  0
  1  2  1  0  0  0  0
  2  3  4  0  0  0  0
  2  7  4  0  0  0  0
  3  4  4  0  0  0  0
  4  5  4  0  0  0  0
  4  9  1  0  0  0  0
  5  6  4  0  0  0  0
  6  7  4  0  0  0  0
  7  8  1  0  0  0  0
  9 10  1  0  0  0  0
  9 11  1  0  0  0  0
 11 12  1  0  0  0  0
 12 13  1  0  0  0  0
 13 14  1  0  0  0  0
 13 15  1  0  0  0  0
M  END
>  <Name_Molregno>
ISOPRENALINE

>  <5-HT2A>
5

>  <Beta-1>
6.65

>  <Beta-2>
6.02

$$$$
KETANSERIN
  Marvin  02231216192D 0   1.00000     0.00000     0

 29 32  0  0  0  0  0  0  0  0999 V2000
    2.3505   -3.5857    0.0000 F   0  0  0  0  0  0  0  0  0
    2.3505   -2.7607    0.0000 C   0  0  0  0  0  0  0  0  0
    1.6360   -2.3482    0.0000 C   0  0  0  0  0  0  0  0  0
    1.6360   -1.5232    0.0000 C   0  0  0  0  0  0  0  0  0
    2.3505   -1.1107    0.0000 C   0  0  0  0  0  0  0  0  0
    3.0649   -1.5232    0.0000 C   0  0  0  0  0  0  0  0  0
    3.0649   -2.3482    0.0000 C   0  0  0  0  0  0  0  0  0
    2.3505   -0.2857    0.0000 C   0  0  0  0  0  0  0  0  0
    1.6360    0.1268    0.0000 O   0  0  0  0  0  0  0  0  0
    3.0649    0.1268    0.0000 C   0  0  0  0  0  0  0  0  0
    3.0649    0.9518    0.0000 C   0  0  0  0  0  0  0  0  0
    3.7794    1.3643    0.0000 C   0  0  0  0  0  0  0  0  0
    4.4939    0.9518    0.0000 N   0  0  0  0  0  0  0  0  0
    4.4939    0.1268    0.0000 C   0  0  0  0  0  0  0  0  0
    3.7794   -0.2857    0.0000 C   0  0  0  0  0  0  0  0  0
    5.2083    1.3643    0.0000 C   0  0  0  0  0  0  0  0  0
    5.9228    0.9518    0.0000 C   0  0  0  0  0  0  0  0  0
    6.6373    1.3643    0.0000 N   0  0  0  0  0  0  0  0  0
    7.3518    0.9518    0.0000 C   0  0  0  0  0  0  0  0  0
    7.3518    0.1268    0.0000 O   0  0  0  0  0  0  0  0  0
    8.0662    1.3643    0.0000 C   0  0  0  0  0  0  0  0  0
    8.0662    2.1893    0.0000 C   0  0  0  0  0  0  0  0  0
    7.3518    2.6018    0.0000 N   0  0  0  0  0  0  0  0  0
    6.6373    2.1893    0.0000 C   0  0  0  0  0  0  0  0  0
    5.9228    2.6018    0.0000 O   0  0  0  0  0  0  0  0  0
    8.7807    2.6018    0.0000 C   0  0  0  0  0  0  0  0  0
    9.4952    2.1893    0.0000 C   0  0  0  0  0  0  0  0  0
    9.4952    1.3643    0.0000 C   0  0  0  0  0  0  0  0  0
    8.7807    0.9518    0.0000 C   0  0  0  0  0  0  0  0  0
  1  2  1  0  0  0  0
  2  3  4  0  0  0  0
  2  7  4  0  0  0  0
  3  4  4  0  0  0  0
  4  5  4  0  0  0  0
  5  6  4  0  0  0  0
  5  8  1  0  0  0  0
  6  7  4  0  0  0  0
  8  9  2  0  0  0  0
  8 10  1  0  0  0  0
 10 11  1  0  0  0  0
 10 15  1  0  0  0  0
 11 12  1  0  0  0  0
 12 13  1  0  0  0  0
 13 14  1  0  0  0  0
 13 16  1  0  0  0  0
 14 15  1  0  0  0  0
 16 17  1  0  0  0  0
 17 18  1  0  0  0  0
 18 19  1  0  0  0  0
 18 24  1  0  0  0  0
 19 20  2  0  0  0  0
 19 21  1  0  0  0  0
 21 22  4  0  0  0  0
 21 29  4  0  0  0  0
 22 23  1  0  0  0  0
 22 26  4  0  0  0  0
 23 24  1  0  0  0  0
 24 25  2  0  0  0  0
 26 27  4  0  0  0  0
 27 28  4  0  0  0  0
 28 29  4  0  0  0  0
M  END
>  <Name_Molregno>
KETANSERIN

>  <5-HT1A>
5.28

>  <5-HT1B>
5.48

>  <5-HT1D>
5.65

>  <5-HT1E>
5

>  <5-HT2A>
8.67

>  <5-HT2C>
7.08

>  <5-HT5>
4.7

>  <5-HT6>
5.55

>  <5-HT7>
6.1

>  <Alpha-2B>
6.7

>  <DOPAMINE D1>
6.52

>  <DOPAMINE D2>
5

>  <DOPAMINE D5>
5.6

>  <Dopamine transporter>
5

>  <HISTAMINE H1>
8.75

$$$$
Ketorolac
  Marvin  02231216192D 0   1.00000     0.00000     0

 19 21  0  0  1  0  0  0  0  0999 V2000
    1.4450    2.2138    0.0000 O   0  0  0  0  0  0  0  0  0
    2.2520    2.0422    0.0000 C   0  0  0  0  0  0  0  0  0
    2.8040    2.6553    0.0000 O   0  0  0  0  0  0  0  0  0
    2.5069    1.2576    0.0000 C   0  0  0  0  0  0  0  0  0
    2.0220    0.5902    0.0000 C   0  0  0  0  0  0  0  0  0
    2.5069   -0.0773    0.0000 C   0  0  0  0  0  0  0  0  0
    3.2915    0.1777    0.0000 N   0  0  0  0  0  0  0  0  0
    3.2915    1.0027    0.0000 C   0  0  0  0  0  0  0  0  0
    4.0761    1.2576    0.0000 C   0  0  0  0  0  0  0  0  0
    4.5611    0.5902    0.0000 C   0  0  0  0  0  0  0  0  0
    4.0761   -0.0773    0.0000 C   0  0  0  0  0  0  0  0  0
    4.3311   -0.8619    0.0000 C   0  0  0  0  0  0  0  0  0
    5.1381   -1.0334    0.0000 O   0  0  0  0  0  0  0  0  0
    3.7791   -1.4750    0.0000 C   0  0  0  0  0  0  0  0  0
    4.0340   -2.2596    0.0000 C   0  0  0  0  0  0  0  0  0
    3.4820   -2.8727    0.0000 C   0  0  0  0  0  0  0  0  0
    2.6750   -2.7012    0.0000 C   0  0  0  0  0  0  0  0  0
    2.4201   -1.9166    0.0000 C   0  0  0  0  0  0  0  0  0
    2.9721   -1.3035    0.0000 C   0  0  0  0  0  0  0  0  0
  1  2  1  0  0  0  0
  2  3  2  0  0  0  0
  2  4  1  0  0  0  0
  4  5  1  0  0  0  0
  4  8  1  0  0  0  0
  5  6  1  0  0  0  0
  6  7  1  0  0  0  0
  7  8  4  0  0  0  0
  7 11  4  0  0  0  0
  8  9  4  0  0  0  0
  9 10  4  0  0  0  0
 10 11  4  0  0  0  0
 11 12  1  0  0  0  0
 12 13  2  0  0  0  0
 12 14  1  0  0  0  0
 14 15  4  0  0  0  0
 14 19  4  0  0  0  0
 15 16  4  0  0  0  0
 16 17  4  0  0  0  0
 17 18  4  0  0  0  0
 18 19  4  0  0  0  0
M  END
>  <Name_Molregno>
Ketorolac

>  <5-HT1A>
5

>  <5-HT1B>
5

>  <5-HT1D>
5

>  <5-HT1E>
5

>  <5-HT2A>
5

>  <5-HT3>
5

>  <5-HT5>
5

>  <5-HT6>
5

>  <5-HT7>
5

>  <Alpha-1A>
5

>  <Alpha-1B>
5

>  <Alpha-2A>
5

>  <Alpha-2B>
5

>  <Alpha-2C>
5

>  <DOPAMINE D1>
5

>  <DOPAMINE D2>
5

>  <DOPAMINE D4>
5

>  <DOPAMINE D5>
5

>  <Dopamine transporter>
5

>  <HISTAMINE H1>
5

>  <HISTAMINE H2>
5

>  <Muscarinic acetylcholine receptor M2>
5

>  <Muscarinic acetylcholine receptor M5>
5

>  <Norepinephrine transporter>
5

>  <Serotonin transporter>
5

$$$$
LOXAPINE
  Marvin  02231216192D 0   1.00000     0.00000     0

 23 26  0  0  0  0  0  0  0  0999 V2000
    3.9671    1.6854    0.0000 Cl  0  0  0  0  0  0  0  0  0
    3.1788    1.4422    0.0000 C   0  0  0  0  0  0  0  0  0
    2.5740    2.0033    0.0000 C   0  0  0  0  0  0  0  0  0
    1.7856    1.7602    0.0000 C   0  0  0  0  0  0  0  0  0
    1.6021    0.9558    0.0000 C   0  0  0  0  0  0  0  0  0
    0.8588    0.5979    0.0000 O   0  0  0  0  0  0  0  0  0
    0.1155    0.9558    0.0000 C   0  0  0  0  0  0  0  0  0
   -0.0681    1.7602    0.0000 C   0  0  0  0  0  0  0  0  0
    0.4463    2.4052    0.0000 N   0  0  0  0  0  0  0  0  0
    1.2713    2.4052    0.0000 C   0  0  0  0  0  0  0  0  0
    1.6292    3.1485    0.0000 N   0  0  0  0  0  0  0  0  0
    1.1645    3.8301    0.0000 C   0  0  0  0  0  0  0  0  0
    1.5224    4.5734    0.0000 C   0  0  0  0  0  0  0  0  0
    2.3451    4.6351    0.0000 N   0  0  0  0  0  0  0  0  0
    2.8099    3.9534    0.0000 C   0  0  0  0  0  0  0  0  0
    2.4519    3.2101    0.0000 C   0  0  0  0  0  0  0  0  0
    2.7031    5.3784    0.0000 C   0  0  0  0  0  0  0  0  0
   -0.8565    2.0033    0.0000 C   0  0  0  0  0  0  0  0  0
   -1.4612    1.4422    0.0000 C   0  0  0  0  0  0  0  0  0
   -1.2776    0.6379    0.0000 C   0  0  0  0  0  0  0  0  0
   -0.4893    0.3947    0.0000 C   0  0  0  0  0  0  0  0  0
    2.2068    0.3947    0.0000 C   0  0  0  0  0  0  0  0  0
    2.9952    0.6379    0.0000 C   0  0  0  0  0  0  0  0  0
  1  2  1  0  0  0  0
  2  3  4  0  0  0  0
  2 23  4  0  0  0  0
  3  4  4  0  0  0  0
  4  5  4  0  0  0  0
  4 10  1  0  0  0  0
  5  6  1  0  0  0  0
  5 22  4  0  0  0  0
  6  7  1  0  0  0  0
  7  8  4  0  0  0  0
  7 21  4  0  0  0  0
  8  9  1  0  0  0  0
  8 18  4  0  0  0  0
  9 10  2  0  0  0  0
 10 11  1  0  0  0  0
 11 12  1  0  0  0  0
 11 16  1  0  0  0  0
 12 13  1  0  0  0  0
 13 14  1  0  0  0  0
 14 15  1  0  0  0  0
 14 17  1  0  0  0  0
 15 16  1  0  0  0  0
 18 19  4  0  0  0  0
 19 20  4  0  0  0  0
 20 21  4  0  0  0  0
 22 23  4  0  0  0  0
M  END
>  <Name_Molregno>
LOXAPINE

>  <5-HT1A>
5.59

>  <5-HT1B>
6.41

>  <5-HT1D>
5.46

>  <5-HT1E>
5.85

>  <5-HT2A>
8.43

>  <5-HT2C>
7.9

>  <5-HT3>
6.72

>  <5-HT5>
6.11

>  <5-HT6>
7.46

>  <5-HT7>
7.06

>  <Alpha-1A>
7.51

>  <Alpha-1B>
7.28

>  <Alpha-2A>
6.82

>  <Alpha-2B>
6.97

>  <Alpha-2C>
7.1

>  <Beta-1>
5

>  <Beta-2>
5

>  <DOPAMINE D1>
7.27

>  <DOPAMINE D2>
7.74

>  <DOPAMINE D3>
7.64

>  <DOPAMINE D4>
8.04

>  <DOPAMINE D5>
7.12

>  <Dopamine transporter>
5

>  <HISTAMINE H1>
8.33

>  <HISTAMINE H2>
6.68

>  <HISTAMINE H4>
5.32

>  <Muscarinic acetylcholine receptor M1>
6.98

>  <Muscarinic acetylcholine receptor M2>
6.38

>  <Muscarinic acetylcholine receptor M3>
6.74

>  <Muscarinic acetylcholine receptor M4>
6.09

>  <Muscarinic acetylcholine receptor M5>
6.83

>  <Norepinephrine transporter>
5.24

>  <Serotonin transporter>
5

$$$$
LY344864
  Marvin  02231216192D 0   1.00000     0.00000     0

 26 29  0  0  1  0  0  0  0  0999 V2000
    0.4821    3.8418    0.0000 F   0  0  0  0  0  0  0  0  0
    1.0342    3.2287    0.0000 C   0  0  0  0  0  0  0  0  0
    1.8411    3.4003    0.0000 C   0  0  0  0  0  0  0  0  0
    2.3932    2.7872    0.0000 C   0  0  0  0  0  0  0  0  0
    2.1382    2.0026    0.0000 C   0  0  0  0  0  0  0  0  0
    1.3312    1.8310    0.0000 C   0  0  0  0  0  0  0  0  0
    0.7792    2.4441    0.0000 C   0  0  0  0  0  0  0  0  0
    2.6902    1.3895    0.0000 C   0  0  0  0  0  0  0  0  0
    2.4353    0.6048    0.0000 O   0  0  0  0  0  0  0  0  0
    3.4972    1.5610    0.0000 N   0  0  0  0  0  0  0  0  0
    4.0493    0.9479    0.0000 C   0  0  0  0  0  0  0  0  0
    4.8562    1.1194    0.0000 C   0  0  0  0  0  0  0  0  0
    5.4083    0.5063    0.0000 C   0  0  0  0  0  0  0  0  0
    6.2333    0.5063    0.0000 C   0  0  0  0  0  0  0  0  0
    6.7853    1.1194    0.0000 C   0  0  0  0  0  0  0  0  0
    7.5923    0.9479    0.0000 C   0  0  0  0  0  0  0  0  0
    8.1443    1.5610    0.0000 N   0  0  0  0  0  0  0  0  0
    7.8894    2.3456    0.0000 C   0  0  0  0  0  0  0  0  0
    8.9513    1.3895    0.0000 C   0  0  0  0  0  0  0  0  0
    7.8472    0.1633    0.0000 C   0  0  0  0  0  0  0  0  0
    7.2952   -0.4498    0.0000 C   0  0  0  0  0  0  0  0  0
    6.4882   -0.2783    0.0000 C   0  0  0  0  0  0  0  0  0
    5.8208   -0.7632    0.0000 N   0  0  0  0  0  0  0  0  0
    5.1533   -0.2783    0.0000 C   0  0  0  0  0  0  0  0  0
    4.3463   -0.4498    0.0000 C   0  0  0  0  0  0  0  0  0
    3.7943    0.1633    0.0000 C   0  0  0  0  0  0  0  0  0
  1  2  1  0  0  0  0
  2  3  4  0  0  0  0
  2  7  4  0  0  0  0
  3  4  4  0  0  0  0
  4  5  4  0  0  0  0
  5  6  4  0  0  0  0
  5  8  1  0  0  0  0
  6  7  4  0  0  0  0
  8  9  2  0  0  0  0
  8 10  1  0  0  0  0
 10 11  1  0  0  0  0
 11 12  4  0  0  0  0
 11 26  4  0  0  0  0
 12 13  4  0  0  0  0
 13 14  4  0  0  0  0
 13 24  4  0  0  0  0
 14 15  1  0  0  0  0
 14 22  4  0  0  0  0
 15 16  1  0  0  0  0
 16 17  1  0  0  0  0
 16 20  1  0  0  0  0
 17 18  1  0  0  0  0
 17 19  1  0  0  0  0
 20 21  1  0  0  0  0
 21 22  1  0  0  0  0
 22 23  4  0  0  0  0
 23 24  4  0  0  0  0
 24 25  4  0  0  0  0
 25 26  4  0  0  0  0
M  STY  1   1 DAT
M  SAL   1  1  23
M  SDT   1 MRV_IMPLICIT_H                                        
M  SDD   1     0.0000    0.0000    DR    ALL  0       0  
M  SED   1 IMPL_H1
M  END
>  <Name_Molregno>
LY344864

>  <5-HT1A>
6.28

>  <5-HT1B>
6.26

>  <5-HT1D>
6.24

>  <5-HT1E>
5.85

>  <5-HT2A>
5.41

>  <5-HT2C>
5.46

>  <5-HT7>
5.31

$$$$
MDA
  Marvin  02231216192D 0   1.00000     0.00000     0

 13 14  0  0  1  0  0  0  0  0999 V2000
   -3.4392   -0.1658    0.0000 O   0  0  0  0  0  0  0  0  0
   -2.6546   -0.4208    0.0000 C   0  0  0  0  0  0  0  0  0
   -1.9402   -0.0083    0.0000 C   0  0  0  0  0  0  0  0  0
   -1.2257   -0.4208    0.0000 C   0  0  0  0  0  0  0  0  0
   -1.2257   -1.2458    0.0000 C   0  0  0  0  0  0  0  0  0
   -1.9402   -1.6583    0.0000 C   0  0  0  0  0  0  0  0  0
   -2.6546   -1.2458    0.0000 C   0  0  0  0  0  0  0  0  0
   -3.4392   -1.5007    0.0000 O   0  0  0  0  0  0  0  0  0
   -3.9242   -0.8333    0.0000 C   0  0  0  0  0  0  0  0  0
   -0.5112   -0.0083    0.0000 C   0  0  0  0  0  0  0  0  0
    0.2033   -0.4208    0.0000 C   0  0  0  0  0  0  0  0  0
    0.9177   -0.0083    0.0000 N   0  0  0  0  0  0  0  0  0
    0.2033   -1.2458    0.0000 C   0  0  0  0  0  0  0  0  0
  1  2  1  0  0  0  0
  1  9  1  0  0  0  0
  2  3  4  0  0  0  0
  2  7  4  0  0  0  0
  3  4  4  0  0  0  0
  4  5  4  0  0  0  0
  4 10  1  0  0  0  0
  5  6  4  0  0  0  0
  6  7  4  0  0  0  0
  7  8  1  0  0  0  0
  8  9  1  0  0  0  0
 10 11  1  0  0  0  0
 11 12  1  0  0  0  0
 11 13  1  0  0  0  0
M  END
>  <Name_Molregno>
MDA

>  <5-HT1A>
5

>  <5-HT2A>
5.08

>  <DOPAMINE D1>
5

>  <DOPAMINE D2>
5

>  <Serotonin transporter>
5

$$$$
MELATONIN
  Marvin  02231216192D 0   1.00000     0.00000     0

 17 18  0  0  0  0  0  0  0  0999 V2000
   -4.4776    1.2628    0.0000 O   0  0  0  0  0  0  0  0  0
   -5.2846    1.4343    0.0000 C   0  0  0  0  0  0  0  0  0
   -4.2226    0.4782    0.0000 C   0  0  0  0  0  0  0  0  0
   -3.4157    0.3066    0.0000 C   0  0  0  0  0  0  0  0  0
   -3.1607   -0.4780    0.0000 C   0  0  0  0  0  0  0  0  0
   -3.7128   -1.0911    0.0000 C   0  0  0  0  0  0  0  0  0
   -3.3003   -1.8056    0.0000 N   0  0  0  0  0  0  0  0  0
   -2.4933   -1.6340    0.0000 C   0  0  0  0  0  0  0  0  0
   -2.4071   -0.8136    0.0000 C   0  0  0  0  0  0  0  0  0
   -1.6926   -0.4011    0.0000 C   0  0  0  0  0  0  0  0  0
   -0.9781   -0.8136    0.0000 C   0  0  0  0  0  0  0  0  0
   -0.2636   -0.4011    0.0000 N   0  0  0  0  0  0  0  0  0
    0.4508   -0.8136    0.0000 C   0  0  0  0  0  0  0  0  0
    1.1653   -0.4011    0.0000 O   0  0  0  0  0  0  0  0  0
    0.4508   -1.6386    0.0000 C   0  0  0  0  0  0  0  0  0
   -4.5197   -0.9196    0.0000 C   0  0  0  0  0  0  0  0  0
   -4.7747   -0.1349    0.0000 C   0  0  0  0  0  0  0  0  0
  1  2  1  0  0  0  0
  1  3  1  0  0  0  0
  3  4  4  0  0  0  0
  3 17  4  0  0  0  0
  4  5  4  0  0  0  0
  5  6  4  0  0  0  0
  5  9  4  0  0  0  0
  6  7  4  0  0  0  0
  6 16  4  0  0  0  0
  7  8  4  0  0  0  0
  8  9  4  0  0  0  0
  9 10  1  0  0  0  0
 10 11  1  0  0  0  0
 11 12  1  0  0  0  0
 12 13  1  0  0  0  0
 13 14  2  0  0  0  0
 13 15  1  0  0  0  0
 16 17  4  0  0  0  0
M  STY  1   1 DAT
M  SAL   1  1   7
M  SDT   1 MRV_IMPLICIT_H                                        
M  SDD   1     0.0000    0.0000    DR    ALL  0       0  
M  SED   1 IMPL_H1
M  END
>  <Name_Molregno>
MELATONIN

>  <5-HT2A>
5

>  <5-HT2C>
5

$$$$
Meloxicam
  Marvin  02231216192D 0   1.00000     0.00000     0

 23 25  0  0  0  0  0  0  0  0999 V2000
    1.0530    2.3261    0.0000 S   0  0  0  0  0  0  0  0  0
    0.2461    2.4976    0.0000 C   0  0  0  0  0  0  0  0  0
   -0.1664    1.7831    0.0000 C   0  0  0  0  0  0  0  0  0
    0.3856    1.1700    0.0000 N   0  0  0  0  0  0  0  0  0
    1.1393    1.5056    0.0000 C   0  0  0  0  0  0  0  0  0
    1.8537    1.0931    0.0000 N   0  0  0  0  0  0  0  0  0
    1.8537    0.2681    0.0000 C   0  0  0  0  0  0  0  0  0
    1.1393   -0.1444    0.0000 O   0  0  0  0  0  0  0  0  0
    2.5682   -0.1444    0.0000 C   0  0  0  0  0  0  0  0  0
    2.5682   -0.9694    0.0000 N   0  0  0  0  0  0  0  0  0
    3.2827   -1.3819    0.0000 S   0  0  0  0  0  0  0  0  0
    2.7524   -2.0139    0.0000 O   0  0  0  0  0  0  0  0  0
    3.8130   -2.0139    0.0000 O   0  0  0  0  0  0  0  0  0
    3.9972   -0.9694    0.0000 C   0  0  0  0  0  0  0  0  0
    3.9972   -0.1444    0.0000 C   0  0  0  0  0  0  0  0  0
    4.7116    0.2681    0.0000 C   0  0  0  0  0  0  0  0  0
    5.4261   -0.1444    0.0000 C   0  0  0  0  0  0  0  0  0
    5.4261   -0.9694    0.0000 C   0  0  0  0  0  0  0  0  0
    4.7116   -1.3819    0.0000 C   0  0  0  0  0  0  0  0  0
    3.2827    0.2681    0.0000 C   0  0  0  0  0  0  0  0  0
    3.2827    1.0931    0.0000 O   0  0  0  0  0  0  0  0  0
    1.8537   -1.3819    0.0000 C   0  0  0  0  0  0  0  0  0
   -0.0895    3.2513    0.0000 C   0  0  0  0  0  0  0  0  0
  1  2  4  0  0  0  0
  1  5  4  0  0  0  0
  2  3  4  0  0  0  0
  2 23  1  0  0  0  0
  3  4  4  0  0  0  0
  4  5  4  0  0  0  0
  5  6  1  0  0  0  0
  6  7  1  0  0  0  0
  7  8  1  0  0  0  0
  7  9  2  0  0  0  0
  9 10  1  0  0  0  0
  9 20  1  0  0  0  0
 10 11  1  0  0  0  0
 10 22  1  0  0  0  0
 11 12  2  0  0  0  0
 11 13  2  0  0  0  0
 11 14  1  0  0  0  0
 14 15  4  0  0  0  0
 14 19  4  0  0  0  0
 15 16  4  0  0  0  0
 15 20  1  0  0  0  0
 16 17  4  0  0  0  0
 17 18  4  0  0  0  0
 18 19  4  0  0  0  0
 20 21  2  0  0  0  0
M  END
>  <Name_Molregno>
Meloxicam

>  <5-HT1A>
5

>  <5-HT1B>
5

>  <5-HT1D>
5

>  <5-HT1E>
5

>  <5-HT2A>
5

>  <5-HT3>
5

>  <5-HT5>
5

>  <5-HT6>
5

>  <5-HT7>
5

>  <Alpha-1A>
5

>  <Alpha-1B>
5

>  <Alpha-2A>
5

>  <Alpha-2B>
5

>  <Alpha-2C>
5

>  <DOPAMINE D1>
5

>  <DOPAMINE D2>
5

>  <DOPAMINE D4>
5

>  <DOPAMINE D5>
5

>  <Dopamine transporter>
5

>  <HISTAMINE H1>
5

>  <HISTAMINE H2>
5

>  <HISTAMINE H4>
5

>  <Muscarinic acetylcholine receptor M2>
5

>  <Muscarinic acetylcholine receptor M5>
5

>  <Norepinephrine transporter>
5

>  <Serotonin transporter>
5

$$$$
MELPERONE
  Marvin  02231216192D 0   1.00000     0.00000     0

 19 20  0  0  0  0  0  0  0  0999 V2000
    0.1244    2.1151    0.0000 F   0  0  0  0  0  0  0  0  0
    0.8389    1.7026    0.0000 C   0  0  0  0  0  0  0  0  0
    1.5534    2.1151    0.0000 C   0  0  0  0  0  0  0  0  0
    2.2678    1.7026    0.0000 C   0  0  0  0  0  0  0  0  0
    2.2678    0.8776    0.0000 C   0  0  0  0  0  0  0  0  0
    1.5534    0.4651    0.0000 C   0  0  0  0  0  0  0  0  0
    0.8389    0.8776    0.0000 C   0  0  0  0  0  0  0  0  0
    2.9823    0.4651    0.0000 C   0  0  0  0  0  0  0  0  0
    2.9823   -0.3599    0.0000 O   0  0  0  0  0  0  0  0  0
    3.6968    0.8776    0.0000 C   0  0  0  0  0  0  0  0  0
    4.4113    0.4651    0.0000 C   0  0  0  0  0  0  0  0  0
    5.1257    0.8776    0.0000 C   0  0  0  0  0  0  0  0  0
    5.8402    0.4651    0.0000 N   0  0  0  0  0  0  0  0  0
    6.5547    0.8776    0.0000 C   0  0  0  0  0  0  0  0  0
    7.2691    0.4651    0.0000 C   0  0  0  0  0  0  0  0  0
    7.2691   -0.3599    0.0000 C   0  0  0  0  0  0  0  0  0
    6.5547   -0.7724    0.0000 C   0  0  0  0  0  0  0  0  0
    5.8402   -0.3599    0.0000 C   0  0  0  0  0  0  0  0  0
    7.9836   -0.7724    0.0000 C   0  0  0  0  0  0  0  0  0
  1  2  1  0  0  0  0
  2  3  4  0  0  0  0
  2  7  4  0  0  0  0
  3  4  4  0  0  0  0
  4  5  4  0  0  0  0
  5  6  4  0  0  0  0
  5  8  1  0  0  0  0
  6  7  4  0  0  0  0
  8  9  2  0  0  0  0
  8 10  1  0  0  0  0
 10 11  1  0  0  0  0
 11 12  1  0  0  0  0
 12 13  1  0  0  0  0
 13 14  1  0  0  0  0
 13 18  1  0  0  0  0
 14 15  1  0  0  0  0
 15 16  1  0  0  0  0
 16 17  1  0  0  0  0
 16 19  1  0  0  0  0
 17 18  1  0  0  0  0
M  END
>  <Name_Molregno>
MELPERONE

>  <5-HT1A>
5.66

>  <5-HT1D>
5.47

>  <5-HT2A>
6.74

>  <5-HT2C>
5.68

>  <DOPAMINE D2>
7.04

>  <DOPAMINE D3>
7.45

>  <DOPAMINE D4>
6.33

>  <HISTAMINE H1>
6.24

>  <Muscarinic acetylcholine receptor M1>
5

>  <Muscarinic acetylcholine receptor M2>
5.62

>  <Muscarinic acetylcholine receptor M3>
5

>  <Muscarinic acetylcholine receptor M4>
5.36

>  <Muscarinic acetylcholine receptor M5>
5

$$$$
MEM
  Marvin  02231216192D 0   1.00000     0.00000     0

  7  6  0  0  0  0  0  0  0  0999 V2000
   -0.0557    0.3490    0.0000 Cl  0  0  0  0  0  0  0  0  0
    0.6587   -0.0635    0.0000 C   0  0  0  0  0  0  0  0  0
    1.3732    0.3490    0.0000 O   0  0  0  0  0  0  0  0  0
    2.0877   -0.0635    0.0000 C   0  0  0  0  0  0  0  0  0
    2.8021    0.3490    0.0000 C   0  0  0  0  0  0  0  0  0
    3.5166   -0.0635    0.0000 O   0  0  0  0  0  0  0  0  0
    4.2311    0.3490    0.0000 C   0  0  0  0  0  0  0  0  0
  1  2  1  0  0  0  0
  2  3  1  0  0  0  0
  3  4  1  0  0  0  0
  4  5  1  0  0  0  0
  5  6  1  0  0  0  0
  6  7  1  0  0  0  0
M  END
>  <Name_Molregno>
MEM

>  <5-HT2A>
7.14

>  <5-HT2C>
6.91

$$$$
MEPYRAMINE
  Marvin  02231216192D 0   1.00000     0.00000     0

 21 22  0  0  0  0  0  0  0  0999 V2000
   -6.0198    1.4523    0.0000 O   0  0  0  0  0  0  0  0  0
   -6.7343    1.0398    0.0000 C   0  0  0  0  0  0  0  0  0
   -5.3053    1.0398    0.0000 C   0  0  0  0  0  0  0  0  0
   -4.5908    1.4523    0.0000 C   0  0  0  0  0  0  0  0  0
   -3.8764    1.0398    0.0000 C   0  0  0  0  0  0  0  0  0
   -3.8764    0.2148    0.0000 C   0  0  0  0  0  0  0  0  0
   -4.5908   -0.1977    0.0000 C   0  0  0  0  0  0  0  0  0
   -5.3053    0.2148    0.0000 C   0  0  0  0  0  0  0  0  0
   -3.1619   -0.1977    0.0000 C   0  0  0  0  0  0  0  0  0
   -2.4474    0.2148    0.0000 N   0  0  0  0  0  0  0  0  0
   -1.7330   -0.1977    0.0000 C   0  0  0  0  0  0  0  0  0
   -1.0185    0.2148    0.0000 C   0  0  0  0  0  0  0  0  0
   -0.3040   -0.1977    0.0000 N   0  0  0  0  0  0  0  0  0
    0.4104    0.2148    0.0000 C   0  0  0  0  0  0  0  0  0
   -0.3040   -1.0227    0.0000 C   0  0  0  0  0  0  0  0  0
   -2.4474    1.0398    0.0000 C   0  0  0  0  0  0  0  0  0
   -3.1619    1.4523    0.0000 N   0  0  0  0  0  0  0  0  0
   -3.1619    2.2773    0.0000 C   0  0  0  0  0  0  0  0  0
   -2.4474    2.6898    0.0000 C   0  0  0  0  0  0  0  0  0
   -1.7330    2.2773    0.0000 C   0  0  0  0  0  0  0  0  0
   -1.7330    1.4523    0.0000 C   0  0  0  0  0  0  0  0  0
  1  2  1  0  0  0  0
  1  3  1  0  0  0  0
  3  4  4  0  0  0  0
  3  8  4  0  0  0  0
  4  5  4  0  0  0  0
  5  6  4  0  0  0  0
  6  7  4  0  0  0  0
  6  9  1  0  0  0  0
  7  8  4  0  0  0  0
  9 10  1  0  0  0  0
 10 11  1  0  0  0  0
 10 16  1  0  0  0  0
 11 12  1  0  0  0  0
 12 13  1  0  0  0  0
 13 14  1  0  0  0  0
 13 15  1  0  0  0  0
 16 17  4  0  0  0  0
 16 21  4  0  0  0  0
 17 18  4  0  0  0  0
 18 19  4  0  0  0  0
 19 20  4  0  0  0  0
 20 21  4  0  0  0  0
M  END
>  <Name_Molregno>
MEPYRAMINE

>  <5-HT1A>
5

>  <5-HT2A>
5.7

>  <5-HT3>
5

>  <HISTAMINE H1>
8.65

>  <HISTAMINE H3>
5

$$$$
MESULERGINE
  Marvin  02231216192D 0   1.00000     0.00000     0

 25 28  0  0  1  0  0  0  0  0999 V2000
   -3.5897   -2.1386    0.0000 S   0  0  0  0  0  0  0  0  0
   -4.0013   -1.4236    0.0000 O   0  0  0  0  0  0  0  0  0
   -3.1780   -2.8535    0.0000 O   0  0  0  0  0  0  0  0  0
   -2.8747   -1.7269    0.0000 N   0  0  0  0  0  0  0  0  0
   -2.8737   -0.9019    0.0000 C   0  0  0  0  0  0  0  0  0
   -2.1588   -0.4903    0.0000 C   0  0  0  0  0  0  0  0  0
   -2.1578    0.3347    0.0000 C   0  0  0  0  0  0  0  0  0
   -2.8717    0.7481    0.0000 C   0  0  0  0  0  0  0  0  0
   -3.5867    0.3364    0.0000 N   0  0  0  0  0  0  0  0  0
   -3.5877   -0.4886    0.0000 C   0  0  0  0  0  0  0  0  0
   -4.3007    0.7498    0.0000 C   0  0  0  0  0  0  0  0  0
   -2.8703    1.5722    0.0000 C   0  0  0  0  0  0  0  0  0
   -2.1578    1.9847    0.0000 C   0  0  0  0  0  0  0  0  0
   -1.4453    1.5722    0.0000 C   0  0  0  0  0  0  0  0  0
   -1.4453    0.7472    0.0000 C   0  0  0  0  0  0  0  0  0
   -0.7274    0.3347    0.0000 C   0  0  0  0  0  0  0  0  0
   -0.0149    0.7472    0.0000 C   0  0  0  0  0  0  0  0  0
   -0.0149    1.5722    0.0000 C   0  0  0  0  0  0  0  0  0
   -0.7274    1.9847    0.0000 C   0  0  0  0  0  0  0  0  0
   -1.0328    2.8419    0.0000 N   0  0  0  0  0  0  0  0  0
   -1.8578    2.8419    0.0000 C   0  0  0  0  0  0  0  0  0
   -0.5573    3.5161    0.0000 C   0  0  0  0  0  0  0  0  0
   -4.3046   -2.5502    0.0000 N   0  0  0  0  0  0  0  0  0
   -4.3056   -3.3752    0.0000 C   0  0  0  0  0  0  0  0  0
   -5.0186   -2.1368    0.0000 C   0  0  0  0  0  0  0  0  0
  1  2  2  0  0  0  0
  1  3  2  0  0  0  0
  1  4  1  0  0  0  0
  1 23  1  0  0  0  0
  4  5  1  0  0  0  0
  5  6  1  0  0  0  0
  5 10  1  0  0  0  0
  6  7  1  0  0  0  0
  7  8  1  0  0  0  0
  7 15  1  0  0  0  0
  8  9  1  0  0  0  0
  8 12  1  0  0  0  0
  9 10  1  0  0  0  0
  9 11  1  0  0  0  0
 12 13  1  0  0  0  0
 13 14  4  0  0  0  0
 13 21  4  0  0  0  0
 14 15  4  0  0  0  0
 14 19  4  0  0  0  0
 15 16  4  0  0  0  0
 16 17  4  0  0  0  0
 17 18  4  0  0  0  0
 18 19  4  0  0  0  0
 19 20  4  0  0  0  0
 20 21  4  0  0  0  0
 20 22  1  0  0  0  0
 23 24  1  0  0  0  0
 23 25  1  0  0  0  0
M  END
>  <Name_Molregno>
MESULERGINE

>  <5-HT1A>
6.61

>  <5-HT1B>
6.09

>  <5-HT1D>
5.33

>  <5-HT2A>
7.19

>  <5-HT2C>
8.71

>  <5-HT6>
5.59

>  <5-HT7>
7.74

$$$$
METERGOLINE
  Marvin  02231216192D 0   1.00000     0.00000     0

 30 34  0  0  1  0  0  0  0  0999 V2000
   -3.9736   -2.5674    0.0000 O   0  0  0  0  0  0  0  0  0
   -3.9745   -3.3924    0.0000 C   0  0  0  0  0  0  0  0  0
   -4.6895   -3.8041    0.0000 C   0  0  0  0  0  0  0  0  0
   -4.6905   -4.6291    0.0000 C   0  0  0  0  0  0  0  0  0
   -5.4055   -5.0407    0.0000 C   0  0  0  0  0  0  0  0  0
   -6.1194   -4.6274    0.0000 C   0  0  0  0  0  0  0  0  0
   -6.1184   -3.8024    0.0000 C   0  0  0  0  0  0  0  0  0
   -5.4035   -3.3907    0.0000 C   0  0  0  0  0  0  0  0  0
   -3.2586   -2.1558    0.0000 C   0  0  0  0  0  0  0  0  0
   -2.5446   -2.5692    0.0000 O   0  0  0  0  0  0  0  0  0
   -3.2576   -1.3308    0.0000 N   0  0  0  0  0  0  0  0  0
   -2.5426   -0.9192    0.0000 C   0  0  0  0  0  0  0  0  0
   -2.5417   -0.0942    0.0000 C   0  0  0  0  0  0  0  0  0
   -1.8267    0.3175    0.0000 C   0  0  0  0  0  0  0  0  0
   -1.8257    1.1425    0.0000 C   0  0  0  0  0  0  0  0  0
   -2.5397    1.5558    0.0000 C   0  0  0  0  0  0  0  0  0
   -3.2546    1.1442    0.0000 N   0  0  0  0  0  0  0  0  0
   -3.2556    0.3192    0.0000 C   0  0  0  0  0  0  0  0  0
   -3.9686    1.5575    0.0000 C   0  0  0  0  0  0  0  0  0
   -2.5382    2.3800    0.0000 C   0  0  0  0  0  0  0  0  0
   -1.8257    2.7925    0.0000 C   0  0  0  0  0  0  0  0  0
   -1.1132    2.3800    0.0000 C   0  0  0  0  0  0  0  0  0
   -1.1132    1.5550    0.0000 C   0  0  0  0  0  0  0  0  0
   -0.3953    1.1425    0.0000 C   0  0  0  0  0  0  0  0  0
    0.3172    1.5550    0.0000 C   0  0  0  0  0  0  0  0  0
    0.3172    2.3800    0.0000 C   0  0  0  0  0  0  0  0  0
   -0.3953    2.7925    0.0000 C   0  0  0  0  0  0  0  0  0
   -0.7007    3.6496    0.0000 N   0  0  0  0  0  0  0  0  0
   -1.5257    3.6496    0.0000 C   0  0  0  0  0  0  0  0  0
   -0.2252    4.3238    0.0000 C   0  0  0  0  0  0  0  0  0
  1  2  1  0  0  0  0
  1  9  1  0  0  0  0
  2  3  1  0  0  0  0
  3  4  4  0  0  0  0
  3  8  4  0  0  0  0
  4  5  4  0  0  0  0
  5  6  4  0  0  0  0
  6  7  4  0  0  0  0
  7  8  4  0  0  0  0
  9 10  2  0  0  0  0
  9 11  1  0  0  0  0
 11 12  1  0  0  0  0
 12 13  1  0  0  0  0
 13 14  1  0  0  0  0
 13 18  1  0  0  0  0
 14 15  1  0  0  0  0
 15 16  1  0  0  0  0
 15 23  1  0  0  0  0
 16 17  1  0  0  0  0
 16 20  1  0  0  0  0
 17 18  1  0  0  0  0
 17 19  1  0  0  0  0
 20 21  1  0  0  0  0
 21 22  4  0  0  0  0
 21 29  4  0  0  0  0
 22 23  4  0  0  0  0
 22 27  4  0  0  0  0
 23 24  4  0  0  0  0
 24 25  4  0  0  0  0
 25 26  4  0  0  0  0
 26 27  4  0  0  0  0
 27 28  4  0  0  0  0
 28 29  4  0  0  0  0
 28 30  1  0  0  0  0
M  END
>  <Name_Molregno>
METERGOLINE

>  <5-HT1A>
8.36

>  <5-HT1B>
8

>  <5-HT1D>
8.83

>  <5-HT1E>
6.03

>  <5-HT2A>
9.28

>  <5-HT2C>
9.24

>  <5-HT6>
6.81

>  <5-HT7>
8.31

$$$$
METHERGINE
  Marvin  02231216192D 0   1.00000     0.00000     0

 25 28  0  0  1  0  0  0  0  0999 V2000
    1.9439   -4.3219    0.0000 O   0  0  0  0  0  0  0  0  0
    1.9449   -3.4969    0.0000 C   0  0  0  0  0  0  0  0  0
    2.6599   -3.0852    0.0000 C   0  0  0  0  0  0  0  0  0
    2.6609   -2.2602    0.0000 N   0  0  0  0  0  0  0  0  0
    3.3758   -1.8486    0.0000 C   0  0  0  0  0  0  0  0  0
    4.0898   -2.2620    0.0000 O   0  0  0  0  0  0  0  0  0
    3.3768   -1.0236    0.0000 C   0  0  0  0  0  0  0  0  0
    4.0918   -0.6120    0.0000 C   0  0  0  0  0  0  0  0  0
    4.0928    0.2130    0.0000 C   0  0  0  0  0  0  0  0  0
    3.3788    0.6264    0.0000 C   0  0  0  0  0  0  0  0  0
    2.6638    0.2147    0.0000 N   0  0  0  0  0  0  0  0  0
    2.6628   -0.6102    0.0000 C   0  0  0  0  0  0  0  0  0
    1.9498    0.6281    0.0000 C   0  0  0  0  0  0  0  0  0
    3.3803    1.4505    0.0000 C   0  0  0  0  0  0  0  0  0
    4.0928    1.8630    0.0000 C   0  0  0  0  0  0  0  0  0
    4.8053    1.4505    0.0000 C   0  0  0  0  0  0  0  0  0
    4.8053    0.6255    0.0000 C   0  0  0  0  0  0  0  0  0
    5.5231    0.2130    0.0000 C   0  0  0  0  0  0  0  0  0
    6.2356    0.6255    0.0000 C   0  0  0  0  0  0  0  0  0
    6.2356    1.4505    0.0000 C   0  0  0  0  0  0  0  0  0
    5.5231    1.8630    0.0000 C   0  0  0  0  0  0  0  0  0
    5.2178    2.7202    0.0000 N   0  0  0  0  0  0  0  0  0
    4.3928    2.7202    0.0000 C   0  0  0  0  0  0  0  0  0
    3.3738   -3.4986    0.0000 C   0  0  0  0  0  0  0  0  0
    3.3729   -4.3236    0.0000 C   0  0  0  0  0  0  0  0  0
  1  2  1  0  0  0  0
  2  3  1  0  0  0  0
  3  4  1  0  0  0  0
  3 24  1  0  0  0  0
  4  5  1  0  0  0  0
  5  6  2  0  0  0  0
  5  7  1  0  0  0  0
  7  8  1  0  0  0  0
  7 12  1  0  0  0  0
  8  9  2  0  0  0  0
  9 10  1  0  0  0  0
  9 17  1  0  0  0  0
 10 11  1  0  0  0  0
 10 14  1  0  0  0  0
 11 12  1  0  0  0  0
 11 13  1  0  0  0  0
 14 15  1  0  0  0  0
 15 16  4  0  0  0  0
 15 23  4  0  0  0  0
 16 17  4  0  0  0  0
 16 21  4  0  0  0  0
 17 18  4  0  0  0  0
 18 19  4  0  0  0  0
 19 20  4  0  0  0  0
 20 21  4  0  0  0  0
 21 22  4  0  0  0  0
 22 23  4  0  0  0  0
 24 25  1  0  0  0  0
M  STY  1   1 DAT
M  SAL   1  1  22
M  SDT   1 MRV_IMPLICIT_H                                        
M  SDD   1     0.0000    0.0000    DR    ALL  0       0  
M  SED   1 IMPL_H1
M  END
>  <Name_Molregno>
METHERGINE

>  <5-HT1A>
8.76

>  <5-HT1E>
7.05

>  <5-HT2A>
9.2

>  <5-HT2C>
7.85

$$$$
METHIOTHEPIN
  Marvin  02231216192D 0   1.00000     0.00000     0

 24 27  0  0  1  0  0  0  0  0999 V2000
    0.1974    0.1481    0.0000 S   0  0  0  0  0  0  0  0  0
    0.9407   -0.2099    0.0000 C   0  0  0  0  0  0  0  0  0
    1.1243   -1.0142    0.0000 C   0  0  0  0  0  0  0  0  0
    1.9127   -1.2574    0.0000 C   0  0  0  0  0  0  0  0  0
    2.5174   -0.6962    0.0000 C   0  0  0  0  0  0  0  0  0
    3.3058   -0.9394    0.0000 S   0  0  0  0  0  0  0  0  0
    3.9106   -0.3783    0.0000 C   0  0  0  0  0  0  0  0  0
    2.3339    0.1081    0.0000 C   0  0  0  0  0  0  0  0  0
    1.5455    0.3512    0.0000 C   0  0  0  0  0  0  0  0  0
    0.6099   -1.6592    0.0000 C   0  0  0  0  0  0  0  0  0
    0.9679   -2.4025    0.0000 N   0  0  0  0  0  0  0  0  0
    1.7906   -2.4642    0.0000 C   0  0  0  0  0  0  0  0  0
    2.1486   -3.2075    0.0000 C   0  0  0  0  0  0  0  0  0
    1.6838   -3.8891    0.0000 N   0  0  0  0  0  0  0  0  0
    0.8611   -3.8275    0.0000 C   0  0  0  0  0  0  0  0  0
    0.5032   -3.0842    0.0000 C   0  0  0  0  0  0  0  0  0
    2.0418   -4.6324    0.0000 C   0  0  0  0  0  0  0  0  0
   -0.2151   -1.6592    0.0000 C   0  0  0  0  0  0  0  0  0
   -0.7294   -1.0142    0.0000 C   0  0  0  0  0  0  0  0  0
   -0.5459   -0.2099    0.0000 C   0  0  0  0  0  0  0  0  0
   -1.1506    0.3512    0.0000 C   0  0  0  0  0  0  0  0  0
   -1.9390    0.1081    0.0000 C   0  0  0  0  0  0  0  0  0
   -2.1225   -0.6962    0.0000 C   0  0  0  0  0  0  0  0  0
   -1.5178   -1.2574    0.0000 C   0  0  0  0  0  0  0  0  0
  1  2  1  0  0  0  0
  1 20  1  0  0  0  0
  2  3  4  0  0  0  0
  2  9  4  0  0  0  0
  3  4  4  0  0  0  0
  3 10  1  0  0  0  0
  4  5  4  0  0  0  0
  5  6  1  0  0  0  0
  5  8  4  0  0  0  0
  6  7  1  0  0  0  0
  8  9  4  0  0  0  0
 10 11  1  0  0  0  0
 10 18  1  0  0  0  0
 11 12  1  0  0  0  0
 11 16  1  0  0  0  0
 12 13  1  0  0  0  0
 13 14  1  0  0  0  0
 14 15  1  0  0  0  0
 14 17  1  0  0  0  0
 15 16  1  0  0  0  0
 18 19  1  0  0  0  0
 19 20  4  0  0  0  0
 19 24  4  0  0  0  0
 20 21  4  0  0  0  0
 21 22  4  0  0  0  0
 22 23  4  0  0  0  0
 23 24  4  0  0  0  0
M  END
>  <Name_Molregno>
METHIOTHEPIN

>  <5-HT1A>
7.52

>  <5-HT1B>
8.41

>  <5-HT1D>
7.85

>  <5-HT1E>
6.75

>  <5-HT2A>
9.25

>  <5-HT2C>
8.91

>  <5-HT5>
9

>  <5-HT6>
9.26

>  <5-HT7>
8.57

$$$$
METHYSERGIDE
  Marvin  02231216192D 0   1.00000     0.00000     0

 26 29  0  0  1  0  0  0  0  0999 V2000
   -5.6466   -4.8655    0.0000 O   0  0  0  0  0  0  0  0  0
   -5.6457   -4.0405    0.0000 C   0  0  0  0  0  0  0  0  0
   -4.9307   -3.6289    0.0000 C   0  0  0  0  0  0  0  0  0
   -4.9297   -2.8039    0.0000 N   0  0  0  0  0  0  0  0  0
   -4.2147   -2.3922    0.0000 C   0  0  0  0  0  0  0  0  0
   -3.5008   -2.8056    0.0000 O   0  0  0  0  0  0  0  0  0
   -4.2138   -1.5672    0.0000 C   0  0  0  0  0  0  0  0  0
   -3.4988   -1.1556    0.0000 C   0  0  0  0  0  0  0  0  0
   -3.4978   -0.3306    0.0000 C   0  0  0  0  0  0  0  0  0
   -4.2118    0.0828    0.0000 C   0  0  0  0  0  0  0  0  0
   -4.9267   -0.3289    0.0000 N   0  0  0  0  0  0  0  0  0
   -4.9277   -1.1539    0.0000 C   0  0  0  0  0  0  0  0  0
   -5.6407    0.0845    0.0000 C   0  0  0  0  0  0  0  0  0
   -4.2103    0.9069    0.0000 C   0  0  0  0  0  0  0  0  0
   -3.4978    1.3194    0.0000 C   0  0  0  0  0  0  0  0  0
   -2.7853    0.9069    0.0000 C   0  0  0  0  0  0  0  0  0
   -2.7853    0.0819    0.0000 C   0  0  0  0  0  0  0  0  0
   -2.0674   -0.3306    0.0000 C   0  0  0  0  0  0  0  0  0
   -1.3549    0.0819    0.0000 C   0  0  0  0  0  0  0  0  0
   -1.3549    0.9069    0.0000 C   0  0  0  0  0  0  0  0  0
   -2.0674    1.3194    0.0000 C   0  0  0  0  0  0  0  0  0
   -2.3728    2.1766    0.0000 N   0  0  0  0  0  0  0  0  0
   -3.1978    2.1766    0.0000 C   0  0  0  0  0  0  0  0  0
   -1.8973    2.8507    0.0000 C   0  0  0  0  0  0  0  0  0
   -4.2167   -4.0422    0.0000 C   0  0  0  0  0  0  0  0  0
   -4.2177   -4.8672    0.0000 C   0  0  0  0  0  0  0  0  0
  1  2  1  0  0  0  0
  2  3  1  0  0  0  0
  3  4  1  0  0  0  0
  3 25  1  0  0  0  0
  4  5  1  0  0  0  0
  5  6  2  0  0  0  0
  5  7  1  0  0  0  0
  7  8  1  0  0  0  0
  7 12  1  0  0  0  0
  8  9  2  0  0  0  0
  9 10  1  0  0  0  0
  9 17  1  0  0  0  0
 10 11  1  0  0  0  0
 10 14  1  0  0  0  0
 11 12  1  0  0  0  0
 11 13  1  0  0  0  0
 14 15  1  0  0  0  0
 15 16  4  0  0  0  0
 15 23  4  0  0  0  0
 16 17  4  0  0  0  0
 16 21  4  0  0  0  0
 17 18  4  0  0  0  0
 18 19  4  0  0  0  0
 19 20  4  0  0  0  0
 20 21  4  0  0  0  0
 21 22  4  0  0  0  0
 22 23  4  0  0  0  0
 22 24  1  0  0  0  0
 25 26  1  0  0  0  0
M  END
>  <Name_Molregno>
METHYSERGIDE

>  <5-HT1A>
7.81

>  <5-HT1B>
7.91

>  <5-HT1D>
7.56

>  <5-HT1E>
6.71

>  <5-HT2A>
8.05

>  <5-HT2C>
8.69

>  <5-HT3>
5

>  <5-HT5>
5

>  <5-HT6>
6.82

>  <5-HT7>
7.32

>  <Alpha-1A>
5

>  <Alpha-1B>
5

>  <Alpha-2A>
6.77

>  <Alpha-2B>
6.97

>  <Alpha-2C>
7.05

>  <Beta-1>
5

>  <Beta-2>
5

>  <DOPAMINE D1>
5

>  <DOPAMINE D2>
5

>  <DOPAMINE D4>
5

>  <DOPAMINE D5>
5

>  <Dopamine transporter>
5

>  <HISTAMINE H1>
5.26

>  <HISTAMINE H2>
5

>  <Muscarinic acetylcholine receptor M1>
5.26

>  <Muscarinic acetylcholine receptor M2>
5.21

>  <Muscarinic acetylcholine receptor M3>
5.33

>  <Muscarinic acetylcholine receptor M4>
5

>  <Muscarinic acetylcholine receptor M5>
5

>  <Norepinephrine transporter>
5

>  <Serotonin transporter>
5

$$$$
METITEPIN
  Marvin  02231216192D 0   1.00000     0.00000     0

 24 27  0  0  1  0  0  0  0  0999 V2000
    0.9298    1.4082    0.0000 S   0  0  0  0  0  0  0  0  0
    1.6731    1.0502    0.0000 C   0  0  0  0  0  0  0  0  0
    1.8567    0.2459    0.0000 C   0  0  0  0  0  0  0  0  0
    2.6450    0.0027    0.0000 C   0  0  0  0  0  0  0  0  0
    3.2498    0.5639    0.0000 C   0  0  0  0  0  0  0  0  0
    3.0662    1.3682    0.0000 C   0  0  0  0  0  0  0  0  0
    2.2779    1.6114    0.0000 C   0  0  0  0  0  0  0  0  0
    2.0943    2.4157    0.0000 S   0  0  0  0  0  0  0  0  0
    2.6991    2.9768    0.0000 C   0  0  0  0  0  0  0  0  0
    1.3423   -0.3991    0.0000 C   0  0  0  0  0  0  0  0  0
    1.7003   -1.1424    0.0000 N   0  0  0  0  0  0  0  0  0
    2.5230   -1.2040    0.0000 C   0  0  0  0  0  0  0  0  0
    2.8809   -1.9473    0.0000 C   0  0  0  0  0  0  0  0  0
    2.4162   -2.6290    0.0000 N   0  0  0  0  0  0  0  0  0
    1.5935   -2.5673    0.0000 C   0  0  0  0  0  0  0  0  0
    1.2355   -1.8240    0.0000 C   0  0  0  0  0  0  0  0  0
    2.7741   -3.3723    0.0000 C   0  0  0  0  0  0  0  0  0
    0.5173   -0.3991    0.0000 C   0  0  0  0  0  0  0  0  0
    0.0029    0.2459    0.0000 C   0  0  0  0  0  0  0  0  0
    0.1865    1.0502    0.0000 C   0  0  0  0  0  0  0  0  0
   -0.4183    1.6114    0.0000 C   0  0  0  0  0  0  0  0  0
   -1.2066    1.3682    0.0000 C   0  0  0  0  0  0  0  0  0
   -1.3902    0.5639    0.0000 C   0  0  0  0  0  0  0  0  0
   -0.7854    0.0027    0.0000 C   0  0  0  0  0  0  0  0  0
  1  2  1  0  0  0  0
  1 20  1  0  0  0  0
  2  3  4  0  0  0  0
  2  7  4  0  0  0  0
  3  4  4  0  0  0  0
  3 10  1  0  0  0  0
  4  5  4  0  0  0  0
  5  6  4  0  0  0  0
  6  7  4  0  0  0  0
  7  8  1  0  0  0  0
  8  9  1  0  0  0  0
 10 11  1  0  0  0  0
 10 18  1  0  0  0  0
 11 12  1  0  0  0  0
 11 16  1  0  0  0  0
 12 13  1  0  0  0  0
 13 14  1  0  0  0  0
 14 15  1  0  0  0  0
 14 17  1  0  0  0  0
 15 16  1  0  0  0  0
 18 19  1  0  0  0  0
 19 20  4  0  0  0  0
 19 24  4  0  0  0  0
 20 21  4  0  0  0  0
 21 22  4  0  0  0  0
 22 23  4  0  0  0  0
 23 24  4  0  0  0  0
M  END
>  <Name_Molregno>
METITEPIN

>  <5-HT2A>
8.86

>  <5-HT2C>
8.87

$$$$
MIANSERIN
  Marvin  02231216192D 0   1.00000     0.00000     0

 20 23  0  0  1  0  0  0  0  0999 V2000
   -0.0097    0.0139    0.0000 N   0  0  0  0  0  0  0  0  0
    0.8153    0.0139    0.0000 C   0  0  0  0  0  0  0  0  0
    1.3296   -0.6312    0.0000 C   0  0  0  0  0  0  0  0  0
    1.1460   -1.4355    0.0000 C   0  0  0  0  0  0  0  0  0
    0.4028   -1.7934    0.0000 C   0  0  0  0  0  0  0  0  0
   -0.3405   -1.4355    0.0000 C   0  0  0  0  0  0  0  0  0
   -0.5241   -0.6312    0.0000 C   0  0  0  0  0  0  0  0  0
   -1.3125   -0.3880    0.0000 C   0  0  0  0  0  0  0  0  0
   -1.9172   -0.9491    0.0000 C   0  0  0  0  0  0  0  0  0
   -1.7337   -1.7534    0.0000 C   0  0  0  0  0  0  0  0  0
   -0.9453   -1.9966    0.0000 C   0  0  0  0  0  0  0  0  0
    1.7508   -1.9966    0.0000 C   0  0  0  0  0  0  0  0  0
    2.5392   -1.7534    0.0000 C   0  0  0  0  0  0  0  0  0
    2.7227   -0.9491    0.0000 C   0  0  0  0  0  0  0  0  0
    2.1180   -0.3880    0.0000 C   0  0  0  0  0  0  0  0  0
    1.2278    0.7283    0.0000 C   0  0  0  0  0  0  0  0  0
    0.8153    1.4428    0.0000 N   0  0  0  0  0  0  0  0  0
   -0.0097    1.4428    0.0000 C   0  0  0  0  0  0  0  0  0
   -0.4222    0.7283    0.0000 C   0  0  0  0  0  0  0  0  0
    1.2278    2.1573    0.0000 C   0  0  0  0  0  0  0  0  0
  1  2  1  0  0  0  0
  1  7  1  0  0  0  0
  1 19  1  0  0  0  0
  2  3  1  0  0  0  0
  2 16  1  0  0  0  0
  3  4  4  0  0  0  0
  3 15  4  0  0  0  0
  4  5  1  0  0  0  0
  4 12  4  0  0  0  0
  5  6  1  0  0  0  0
  6  7  4  0  0  0  0
  6 11  4  0  0  0  0
  7  8  4  0  0  0  0
  8  9  4  0  0  0  0
  9 10  4  0  0  0  0
 10 11  4  0  0  0  0
 12 13  4  0  0  0  0
 13 14  4  0  0  0  0
 14 15  4  0  0  0  0
 16 17  1  0  0  0  0
 17 18  1  0  0  0  0
 17 20  1  0  0  0  0
 18 19  1  0  0  0  0
M  END
>  <Name_Molregno>
MIANSERIN

>  <5-HT1A>
6.15

>  <5-HT1D>
6.53

>  <5-HT2A>
8.13

>  <5-HT2C>
8.5

>  <5-HT6>
7.2

>  <5-HT7>
7.28

>  <Alpha-2A>
8.32

>  <Alpha-2B>
7.57

>  <Alpha-2C>
8.42

>  <DOPAMINE D1>
6.11

>  <DOPAMINE D2>
5.69

>  <DOPAMINE D3>
5.55

>  <Dopamine transporter>
5.03

>  <HISTAMINE H1>
9.13

>  <HISTAMINE H4>
6.12

>  <Norepinephrine transporter>
7.15

>  <Serotonin transporter>
5.4

$$$$
MIRTAZAPINE
  Marvin  02231216192D 0   1.00000     0.00000     0

 20 23  0  0  1  0  0  0  0  0999 V2000
   -2.9515    1.3173    0.0000 N   0  0  0  0  0  0  0  0  0
   -2.1632    1.0741    0.0000 C   0  0  0  0  0  0  0  0  0
   -1.6488    1.7191    0.0000 N   0  0  0  0  0  0  0  0  0
   -0.8238    1.7191    0.0000 C   0  0  0  0  0  0  0  0  0
   -0.3094    1.0741    0.0000 C   0  0  0  0  0  0  0  0  0
   -0.4930    0.2698    0.0000 C   0  0  0  0  0  0  0  0  0
   -1.2363   -0.0881    0.0000 C   0  0  0  0  0  0  0  0  0
   -1.9796    0.2698    0.0000 C   0  0  0  0  0  0  0  0  0
   -2.5844   -0.2913    0.0000 C   0  0  0  0  0  0  0  0  0
   -3.3727   -0.0482    0.0000 C   0  0  0  0  0  0  0  0  0
   -3.5563    0.7562    0.0000 C   0  0  0  0  0  0  0  0  0
    0.1118   -0.2913    0.0000 C   0  0  0  0  0  0  0  0  0
    0.9001   -0.0482    0.0000 C   0  0  0  0  0  0  0  0  0
    1.0837    0.7562    0.0000 C   0  0  0  0  0  0  0  0  0
    0.4789    1.3173    0.0000 C   0  0  0  0  0  0  0  0  0
   -0.4113    2.4336    0.0000 C   0  0  0  0  0  0  0  0  0
   -0.8238    3.1481    0.0000 N   0  0  0  0  0  0  0  0  0
   -1.6488    3.1481    0.0000 C   0  0  0  0  0  0  0  0  0
   -2.0613    2.4336    0.0000 C   0  0  0  0  0  0  0  0  0
   -0.4113    3.8626    0.0000 C   0  0  0  0  0  0  0  0  0
  1  2  4  0  0  0  0
  1 11  4  0  0  0  0
  2  3  1  0  0  0  0
  2  8  4  0  0  0  0
  3  4  1  0  0  0  0
  3 19  1  0  0  0  0
  4  5  1  0  0  0  0
  4 16  1  0  0  0  0
  5  6  4  0  0  0  0
  5 15  4  0  0  0  0
  6  7  1  0  0  0  0
  6 12  4  0  0  0  0
  7  8  1  0  0  0  0
  8  9  4  0  0  0  0
  9 10  4  0  0  0  0
 10 11  4  0  0  0  0
 12 13  4  0  0  0  0
 13 14  4  0  0  0  0
 14 15  4  0  0  0  0
 16 17  1  0  0  0  0
 17 18  1  0  0  0  0
 17 20  1  0  0  0  0
 18 19  1  0  0  0  0
M  END
>  <Name_Molregno>
MIRTAZAPINE

>  <5-HT1A>
7.74

>  <5-HT2A>
7.16

>  <5-HT2C>
7.41

>  <5-HT7>
6.58

>  <Alpha-2A>
7.7

>  <Alpha-2C>
7.74

>  <DOPAMINE D1>
5.38

>  <DOPAMINE D2>
5.26

>  <DOPAMINE D3>
6.06

>  <DOPAMINE D4>
7.6

>  <Dopamine transporter>
5

>  <HISTAMINE H1>
8.8

>  <Norepinephrine transporter>
5.29

>  <Serotonin transporter>
5

$$$$
MK212
  Marvin  02231216192D 0   1.00000     0.00000     0

 13 14  0  0  0  0  0  0  0  0999 V2000
    1.2605    1.9269    0.0000 Cl  0  0  0  0  0  0  0  0  0
    1.2605    1.1019    0.0000 C   0  0  0  0  0  0  0  0  0
    1.9750    0.6894    0.0000 N   0  0  0  0  0  0  0  0  0
    1.9750   -0.1356    0.0000 C   0  0  0  0  0  0  0  0  0
    2.6894   -0.5481    0.0000 N   0  0  0  0  0  0  0  0  0
    3.4039   -0.1356    0.0000 C   0  0  0  0  0  0  0  0  0
    4.1184   -0.5481    0.0000 C   0  0  0  0  0  0  0  0  0
    4.1184   -1.3731    0.0000 N   0  0  0  0  0  0  0  0  0
    3.4039   -1.7856    0.0000 C   0  0  0  0  0  0  0  0  0
    2.6894   -1.3731    0.0000 C   0  0  0  0  0  0  0  0  0
    1.2605   -0.5481    0.0000 C   0  0  0  0  0  0  0  0  0
    0.5460   -0.1356    0.0000 N   0  0  0  0  0  0  0  0  0
    0.5460    0.6894    0.0000 C   0  0  0  0  0  0  0  0  0
  1  2  1  0  0  0  0
  2  3  4  0  0  0  0
  2 13  4  0  0  0  0
  3  4  4  0  0  0  0
  4  5  1  0  0  0  0
  4 11  4  0  0  0  0
  5  6  1  0  0  0  0
  5 10  1  0  0  0  0
  6  7  1  0  0  0  0
  7  8  1  0  0  0  0
  8  9  1  0  0  0  0
  9 10  1  0  0  0  0
 11 12  4  0  0  0  0
 12 13  4  0  0  0  0
M  END
>  <Name_Molregno>
MK212

>  <5-HT2A>
5.99

>  <5-HT2C>
6.58

$$$$
MOLINDONE
  Marvin  02231216192D 0   1.00000     0.00000     0

 20 22  0  0  1  0  0  0  0  0999 V2000
    0.1066   -1.7192    0.0000 O   0  0  0  0  0  0  0  0  0
   -0.6079   -2.1317    0.0000 C   0  0  0  0  0  0  0  0  0
   -1.3224   -1.7192    0.0000 C   0  0  0  0  0  0  0  0  0
   -1.3224   -0.8942    0.0000 N   0  0  0  0  0  0  0  0  0
   -0.6079   -0.4817    0.0000 C   0  0  0  0  0  0  0  0  0
    0.1066   -0.8942    0.0000 C   0  0  0  0  0  0  0  0  0
   -2.0368   -0.4817    0.0000 C   0  0  0  0  0  0  0  0  0
   -2.7513   -0.8942    0.0000 C   0  0  0  0  0  0  0  0  0
   -2.7513   -1.7192    0.0000 C   0  0  0  0  0  0  0  0  0
   -3.4658   -2.1317    0.0000 C   0  0  0  0  0  0  0  0  0
   -4.1803   -1.7192    0.0000 C   0  0  0  0  0  0  0  0  0
   -4.9649   -1.9741    0.0000 N   0  0  0  0  0  0  0  0  0
   -5.4498   -1.3067    0.0000 C   0  0  0  0  0  0  0  0  0
   -6.2748   -1.3067    0.0000 C   0  0  0  0  0  0  0  0  0
   -4.9649   -0.6392    0.0000 C   0  0  0  0  0  0  0  0  0
   -4.1803   -0.8942    0.0000 C   0  0  0  0  0  0  0  0  0
   -3.4658   -0.4817    0.0000 C   0  0  0  0  0  0  0  0  0
   -3.4658    0.3433    0.0000 O   0  0  0  0  0  0  0  0  0
   -5.2198    0.1454    0.0000 C   0  0  0  0  0  0  0  0  0
   -4.6678    0.7585    0.0000 C   0  0  0  0  0  0  0  0  0
  1  2  1  0  0  0  0
  1  6  1  0  0  0  0
  2  3  1  0  0  0  0
  3  4  1  0  0  0  0
  4  5  1  0  0  0  0
  4  7  1  0  0  0  0
  5  6  1  0  0  0  0
  7  8  1  0  0  0  0
  8  9  1  0  0  0  0
  8 17  1  0  0  0  0
  9 10  1  0  0  0  0
 10 11  1  0  0  0  0
 11 12  4  0  0  0  0
 11 16  4  0  0  0  0
 12 13  4  0  0  0  0
 13 14  1  0  0  0  0
 13 15  4  0  0  0  0
 15 16  4  0  0  0  0
 15 19  1  0  0  0  0
 16 17  1  0  0  0  0
 17 18  2  0  0  0  0
 19 20  1  0  0  0  0
M  STY  1   1 DAT
M  SAL   1  1  12
M  SDT   1 MRV_IMPLICIT_H                                        
M  SDD   1     0.0000    0.0000    DR    ALL  0       0  
M  SED   1 IMPL_H1
M  END
>  <Name_Molregno>
MOLINDONE

>  <5-HT1A>
5.42

>  <5-HT2A>
5.41

>  <5-HT2C>
5

>  <5-HT6>
6

>  <5-HT7>
6.05

>  <Alpha-1A>
5.58

>  <Alpha-2A>
5.96

>  <Alpha-2B>
6.25

>  <Alpha-2C>
6.76

>  <DOPAMINE D2>
7.74

>  <DOPAMINE D3>
7.39

>  <DOPAMINE D4>
5.99

>  <HISTAMINE H1>
5.17

>  <Muscarinic acetylcholine receptor M3>
5

$$$$
N-(4-Acetamidophenyl)indomethacinamide
  Marvin  02231216192D 0   1.00000     0.00000     0

 37 40  0  0  0  0  0  0  0  0999 V2000
    0.5106    2.7433    0.0000 Cl  0  0  0  0  0  0  0  0  0
    1.3311    2.6571    0.0000 C   0  0  0  0  0  0  0  0  0
    1.8160    3.3245    0.0000 C   0  0  0  0  0  0  0  0  0
    2.6365    3.2383    0.0000 C   0  0  0  0  0  0  0  0  0
    2.9720    2.4846    0.0000 C   0  0  0  0  0  0  0  0  0
    2.4871    1.8172    0.0000 C   0  0  0  0  0  0  0  0  0
    1.6666    1.9034    0.0000 C   0  0  0  0  0  0  0  0  0
    3.7925    2.3984    0.0000 C   0  0  0  0  0  0  0  0  0
    4.2774    3.0658    0.0000 O   0  0  0  0  0  0  0  0  0
    4.1281    1.6447    0.0000 N   0  0  0  0  0  0  0  0  0
    3.7156    0.9302    0.0000 C   0  0  0  0  0  0  0  0  0
    4.2676    0.3171    0.0000 C   0  0  0  0  0  0  0  0  0
    4.0127   -0.4675    0.0000 C   0  0  0  0  0  0  0  0  0
    3.2057   -0.6390    0.0000 C   0  0  0  0  0  0  0  0  0
    2.9508   -1.4236    0.0000 O   0  0  0  0  0  0  0  0  0
    2.1438   -1.5952    0.0000 C   0  0  0  0  0  0  0  0  0
    2.6537   -0.0259    0.0000 C   0  0  0  0  0  0  0  0  0
    2.9086    0.7587    0.0000 C   0  0  0  0  0  0  0  0  0
    5.0213    0.6527    0.0000 C   0  0  0  0  0  0  0  0  0
    5.7358    0.2402    0.0000 C   0  0  0  0  0  0  0  0  0
    5.7358   -0.5848    0.0000 C   0  0  0  0  0  0  0  0  0
    5.0213   -0.9973    0.0000 O   0  0  0  0  0  0  0  0  0
    6.4502   -0.9973    0.0000 N   0  0  0  0  0  0  0  0  0
    7.1647   -0.5848    0.0000 C   0  0  0  0  0  0  0  0  0
    7.1647    0.2402    0.0000 C   0  0  0  0  0  0  0  0  0
    7.8792    0.6527    0.0000 C   0  0  0  0  0  0  0  0  0
    7.8792    1.4777    0.0000 C   0  0  0  0  0  0  0  0  0
    8.5936    1.8902    0.0000 C   0  0  0  0  0  0  0  0  0
    9.3081    1.4777    0.0000 C   0  0  0  0  0  0  0  0  0
   10.0226    1.8902    0.0000 N   0  0  0  0  0  0  0  0  0
   10.7371    1.4777    0.0000 C   0  0  0  0  0  0  0  0  0
   11.4515    1.8902    0.0000 O   0  0  0  0  0  0  0  0  0
   10.7371    0.6527    0.0000 C   0  0  0  0  0  0  0  0  0
    9.3081    0.6527    0.0000 C   0  0  0  0  0  0  0  0  0
    8.5936    0.2402    0.0000 C   0  0  0  0  0  0  0  0  0
    4.9351    1.4732    0.0000 C   0  0  0  0  0  0  0  0  0
    5.5481    2.0252    0.0000 C   0  0  0  0  0  0  0  0  0
  1  2  1  0  0  0  0
  2  3  4  0  0  0  0
  2  7  4  0  0  0  0
  3  4  4  0  0  0  0
  4  5  4  0  0  0  0
  5  6  4  0  0  0  0
  5  8  1  0  0  0  0
  6  7  4  0  0  0  0
  8  9  2  0  0  0  0
  8 10  1  0  0  0  0
 10 11  4  0  0  0  0
 10 36  4  0  0  0  0
 11 12  4  0  0  0  0
 11 18  4  0  0  0  0
 12 13  4  0  0  0  0
 12 19  4  0  0  0  0
 13 14  4  0  0  0  0
 14 15  1  0  0  0  0
 14 17  4  0  0  0  0
 15 16  1  0  0  0  0
 17 18  4  0  0  0  0
 19 20  1  0  0  0  0
 19 36  4  0  0  0  0
 20 21  1  0  0  0  0
 21 22  2  0  0  0  0
 21 23  1  0  0  0  0
 23 24  1  0  0  0  0
 24 25  1  0  0  0  0
 25 26  1  0  0  0  0
 26 27  4  0  0  0  0
 26 35  4  0  0  0  0
 27 28  4  0  0  0  0
 28 29  4  0  0  0  0
 29 30  1  0  0  0  0
 29 34  4  0  0  0  0
 30 31  1  0  0  0  0
 31 32  2  0  0  0  0
 31 33  1  0  0  0  0
 34 35  4  0  0  0  0
 36 37  1  0  0  0  0
M  END
>  <Name_Molregno>
N-(4-Acetamidophenyl)indomethacinamide

>  <5-HT1A>
5

>  <5-HT1B>
5

>  <5-HT1E>
5

>  <5-HT2A>
5

>  <5-HT3>
5

>  <5-HT6>
5

>  <5-HT7>
5

>  <Alpha-1A>
5

>  <Alpha-1B>
5

>  <Alpha-2A>
5

>  <Alpha-2B>
5

>  <Alpha-2C>
5

>  <DOPAMINE D1>
5

>  <DOPAMINE D2>
5

>  <DOPAMINE D5>
5

>  <Dopamine transporter>
5

>  <HISTAMINE H1>
5

>  <HISTAMINE H2>
5

>  <HISTAMINE H4>
5

>  <Muscarinic acetylcholine receptor M2>
5

>  <Muscarinic acetylcholine receptor M5>
5

>  <Serotonin transporter>
5

$$$$
Naproxen
  Marvin  02231216192D 0   1.00000     0.00000     0

 17 18  0  0  1  0  0  0  0  0999 V2000
   -5.3383   -1.4581    0.0000 O   0  0  0  0  0  0  0  0  0
   -6.0528   -1.0456    0.0000 C   0  0  0  0  0  0  0  0  0
   -4.6238   -1.0456    0.0000 C   0  0  0  0  0  0  0  0  0
   -3.9093   -1.4581    0.0000 C   0  0  0  0  0  0  0  0  0
   -3.1949   -1.0456    0.0000 C   0  0  0  0  0  0  0  0  0
   -3.1949   -0.2206    0.0000 C   0  0  0  0  0  0  0  0  0
   -2.4804    0.1919    0.0000 C   0  0  0  0  0  0  0  0  0
   -1.7659   -0.2206    0.0000 C   0  0  0  0  0  0  0  0  0
   -1.7659   -1.0456    0.0000 C   0  0  0  0  0  0  0  0  0
   -2.4804   -1.4581    0.0000 C   0  0  0  0  0  0  0  0  0
   -1.0515    0.1919    0.0000 C   0  0  0  0  0  0  0  0  0
   -0.3370   -0.2206    0.0000 C   0  0  0  0  0  0  0  0  0
    0.3775    0.1919    0.0000 O   0  0  0  0  0  0  0  0  0
   -0.3370   -1.0456    0.0000 O   0  0  0  0  0  0  0  0  0
   -1.0515    1.0169    0.0000 C   0  0  0  0  0  0  0  0  0
   -3.9093    0.1919    0.0000 C   0  0  0  0  0  0  0  0  0
   -4.6238   -0.2206    0.0000 C   0  0  0  0  0  0  0  0  0
  1  2  1  0  0  0  0
  1  3  1  0  0  0  0
  3  4  4  0  0  0  0
  3 17  4  0  0  0  0
  4  5  4  0  0  0  0
  5  6  4  0  0  0  0
  5 10  4  0  0  0  0
  6  7  4  0  0  0  0
  6 16  4  0  0  0  0
  7  8  4  0  0  0  0
  8  9  4  0  0  0  0
  8 11  1  0  0  0  0
  9 10  4  0  0  0  0
 11 12  1  0  0  0  0
 11 15  1  0  0  0  0
 12 13  1  0  0  0  0
 12 14  2  0  0  0  0
 16 17  4  0  0  0  0
M  END
>  <Name_Molregno>
Naproxen

>  <5-HT1A>
5

>  <5-HT1B>
5

>  <5-HT1D>
5

>  <5-HT1E>
5

>  <5-HT2A>
5

>  <5-HT3>
5

>  <5-HT5>
5

>  <5-HT6>
5

>  <5-HT7>
5

>  <Alpha-1A>
5

>  <Alpha-1B>
5

>  <Alpha-2A>
5

>  <Alpha-2B>
5

>  <Alpha-2C>
5

>  <DOPAMINE D1>
5

>  <DOPAMINE D2>
5

>  <DOPAMINE D4>
5

>  <DOPAMINE D5>
5

>  <Dopamine transporter>
5

>  <HISTAMINE H1>
5

>  <HISTAMINE H2>
5

>  <HISTAMINE H4>
5

>  <Muscarinic acetylcholine receptor M2>
5

>  <Muscarinic acetylcholine receptor M5>
5

>  <Norepinephrine transporter>
5

>  <Serotonin transporter>
5

$$$$
N-DESMETHYLCLOZAPINE
  Marvin  02231216192D 0   1.00000     0.00000     0

 22 25  0  0  0  0  0  0  0  0999 V2000
   -0.3818   -1.7384    0.0000 Cl  0  0  0  0  0  0  0  0  0
    0.4065   -1.9816    0.0000 C   0  0  0  0  0  0  0  0  0
    1.0113   -1.4204    0.0000 C   0  0  0  0  0  0  0  0  0
    1.7996   -1.6636    0.0000 C   0  0  0  0  0  0  0  0  0
    2.3140   -1.0186    0.0000 N   0  0  0  0  0  0  0  0  0
    3.1390   -1.0186    0.0000 C   0  0  0  0  0  0  0  0  0
    3.4969   -0.2753    0.0000 N   0  0  0  0  0  0  0  0  0
    3.0322    0.4063    0.0000 C   0  0  0  0  0  0  0  0  0
    3.3902    1.1496    0.0000 C   0  0  0  0  0  0  0  0  0
    4.2129    1.2113    0.0000 N   0  0  0  0  0  0  0  0  0
    4.6776    0.5296    0.0000 C   0  0  0  0  0  0  0  0  0
    4.3196   -0.2137    0.0000 C   0  0  0  0  0  0  0  0  0
    3.6534   -1.6636    0.0000 C   0  0  0  0  0  0  0  0  0
    3.4698   -2.4679    0.0000 C   0  0  0  0  0  0  0  0  0
    2.7265   -2.8259    0.0000 N   0  0  0  0  0  0  0  0  0
    1.9832   -2.4679    0.0000 C   0  0  0  0  0  0  0  0  0
    1.3784   -3.0291    0.0000 C   0  0  0  0  0  0  0  0  0
    0.5901   -2.7859    0.0000 C   0  0  0  0  0  0  0  0  0
    4.0746   -3.0291    0.0000 C   0  0  0  0  0  0  0  0  0
    4.8629   -2.7859    0.0000 C   0  0  0  0  0  0  0  0  0
    5.0465   -1.9816    0.0000 C   0  0  0  0  0  0  0  0  0
    4.4417   -1.4204    0.0000 C   0  0  0  0  0  0  0  0  0
  1  2  1  0  0  0  0
  2  3  4  0  0  0  0
  2 18  4  0  0  0  0
  3  4  4  0  0  0  0
  4  5  1  0  0  0  0
  4 16  4  0  0  0  0
  5  6  1  0  0  0  0
  6  7  1  0  0  0  0
  6 13  2  0  0  0  0
  7  8  1  0  0  0  0
  7 12  1  0  0  0  0
  8  9  1  0  0  0  0
  9 10  1  0  0  0  0
 10 11  1  0  0  0  0
 11 12  1  0  0  0  0
 13 14  1  0  0  0  0
 13 22  1  0  0  0  0
 14 15  2  0  0  0  0
 14 19  1  0  0  0  0
 15 16  1  0  0  0  0
 16 17  4  0  0  0  0
 17 18  4  0  0  0  0
 19 20  2  0  0  0  0
 20 21  1  0  0  0  0
 21 22  2  0  0  0  0
M  END
>  <Name_Molregno>
N-DESMETHYLCLOZAPINE

>  <5-HT1A>
7.86

>  <5-HT1B>
6.39

>  <5-HT1D>
6.32

>  <5-HT1E>
6.41

>  <5-HT2A>
7.96

>  <5-HT3>
6.57

>  <5-HT5>
6.46

>  <5-HT6>
7.94

>  <5-HT7>
7.22

>  <Alpha-1A>
6.98

>  <Alpha-1B>
7.07

>  <Alpha-2A>
6.86

>  <Alpha-2B>
7.02

>  <Alpha-2C>
6.93

>  <Beta-1>
5.2

>  <Beta-2>
5.33

>  <DOPAMINE D1>
7.84

>  <DOPAMINE D2>
7

>  <DOPAMINE D3>
6.82

>  <DOPAMINE D4>
7.28

>  <DOPAMINE D5>
6.55

>  <Dopamine transporter>
5

>  <HISTAMINE H1>
8.47

>  <HISTAMINE H2>
6.46

>  <HISTAMINE H4>
5.99

>  <Muscarinic acetylcholine receptor M1>
7.17

>  <Muscarinic acetylcholine receptor M2>
6.38

>  <Muscarinic acetylcholine receptor M3>
7.02

>  <Muscarinic acetylcholine receptor M4>
6.77

>  <Muscarinic acetylcholine receptor M5>
7.45

>  <Norepinephrine transporter>
6.31

>  <Serotonin transporter>
6.5

$$$$
NIFEDIPINE
  Marvin  02231216192D 0   1.00000     0.00000     0

 25 26  0  0  0  0  0  0  0  0999 V2000
    0.4359    2.4848    0.0000 O   0  0  0  0  0  0  0  0  0
    1.0850    1.9717    0.0000 C   0  0  0  0  0  0  0  0  0
    1.5038    2.6986    0.0000 O   0  0  0  0  0  0  0  0  0
    1.2412    1.0941    0.0000 C   0  0  0  0  0  0  0  0  0
    1.9556    0.6816    0.0000 C   0  0  0  0  0  0  0  0  0
    1.9556   -0.1434    0.0000 C   0  0  0  0  0  0  0  0  0
    2.2508   -1.0453    0.0000 C   0  0  0  0  0  0  0  0  0
    2.6563   -1.7428    0.0000 O   0  0  0  0  0  0  0  0  0
    2.2459   -2.4585    0.0000 C   0  0  0  0  0  0  0  0  0
    2.9837   -1.5204    0.0000 O   0  0  0  0  0  0  0  0  0
    1.2412   -0.5559    0.0000 C   0  0  0  0  0  0  0  0  0
    0.5267   -0.1434    0.0000 N   0  0  0  0  0  0  0  0  0
    0.5267    0.6816    0.0000 C   0  0  0  0  0  0  0  0  0
   -0.2639    0.9620    0.0000 C   0  0  0  0  0  0  0  0  0
    0.8936   -1.3751    0.0000 C   0  0  0  0  0  0  0  0  0
    2.6701    1.0941    0.0000 C   0  0  0  0  0  0  0  0  0
    2.6701    1.9191    0.0000 C   0  0  0  0  0  0  0  0  0
    3.3846    2.3316    0.0000 C   0  0  0  0  0  0  0  0  0
    4.0990    1.9191    0.0000 C   0  0  0  0  0  0  0  0  0
    4.0990    1.0941    0.0000 C   0  0  0  0  0  0  0  0  0
    3.3846    0.6816    0.0000 C   0  0  0  0  0  0  0  0  0
    4.0016    0.1221    0.0000 N   0  3  0  0  0  0  0  0  0
    4.5323   -0.4953    0.0000 O   0  5  0  0  0  0  0  0  0
    3.3782   -0.4792    0.0000 O   0  5  0  0  0  0  0  0  0
    0.5553    3.3011    0.0000 C   0  0  0  0  0  0  0  0  0
  1  2  1  0  0  0  0
  1 25  1  0  0  0  0
  2  3  2  0  0  0  0
  2  4  1  0  0  0  0
  4  5  1  0  0  0  0
  4 13  2  0  0  0  0
  5  6  1  0  0  0  0
  5 16  1  0  0  0  0
  6  7  1  0  0  0  0
  6 11  2  0  0  0  0
  7  8  1  0  0  0  0
  7 10  2  0  0  0  0
  8  9  1  0  0  0  0
 11 12  1  0  0  0  0
 11 15  1  0  0  0  0
 12 13  1  0  0  0  0
 13 14  1  0  0  0  0
 16 17  4  0  0  0  0
 16 21  4  0  0  0  0
 17 18  4  0  0  0  0
 18 19  4  0  0  0  0
 19 20  4  0  0  0  0
 20 21  4  0  0  0  0
 21 22  1  0  0  0  0
 22 23  1  0  0  0  0
 22 24  1  0  0  0  0
M  CHG  3  22   1  23  -1  24  -1
M  END
>  <Name_Molregno>
NIFEDIPINE

>  <5-HT2A>
6.49

$$$$
nimesulide
  Marvin  02231216192D 0   1.00000     0.00000     0

 21 22  0  0  0  0  0  0  0  0999 V2000
    3.1126    1.9121    0.0000 S   0  0  0  0  0  0  0  0  0
    3.8271    2.3246    0.0000 O   0  0  0  0  0  0  0  0  0
    2.7001    2.6266    0.0000 O   0  0  0  0  0  0  0  0  0
    2.3982    1.4996    0.0000 N   0  0  0  0  0  0  0  0  0
    2.3982    0.6746    0.0000 C   0  0  0  0  0  0  0  0  0
    3.1126    0.2621    0.0000 C   0  0  0  0  0  0  0  0  0
    3.1126   -0.5629    0.0000 C   0  0  0  0  0  0  0  0  0
    2.3982   -0.9754    0.0000 C   0  0  0  0  0  0  0  0  0
    2.3982   -1.8004    0.0000 N   0  3  0  0  0  0  0  0  0
    1.6837   -2.2129    0.0000 O   0  5  0  0  0  0  0  0  0
    3.1126   -2.2129    0.0000 O   0  5  0  0  0  0  0  0  0
    1.6837   -0.5629    0.0000 C   0  0  0  0  0  0  0  0  0
    1.6837    0.2621    0.0000 C   0  0  0  0  0  0  0  0  0
    0.9692    0.6746    0.0000 O   0  0  0  0  0  0  0  0  0
    0.9692    1.4996    0.0000 C   0  0  0  0  0  0  0  0  0
    0.2548    1.9121    0.0000 C   0  0  0  0  0  0  0  0  0
    0.2548    2.7371    0.0000 C   0  0  0  0  0  0  0  0  0
    0.9692    3.1496    0.0000 C   0  0  0  0  0  0  0  0  0
    1.6837    2.7371    0.0000 C   0  0  0  0  0  0  0  0  0
    1.6837    1.9121    0.0000 C   0  0  0  0  0  0  0  0  0
    3.5251    1.1976    0.0000 C   0  0  0  0  0  0  0  0  0
  1  2  2  0  0  0  0
  1  3  2  0  0  0  0
  1  4  1  0  0  0  0
  1 21  1  0  0  0  0
  4  5  1  0  0  0  0
  5  6  4  0  0  0  0
  5 13  4  0  0  0  0
  6  7  4  0  0  0  0
  7  8  4  0  0  0  0
  8  9  1  0  0  0  0
  8 12  4  0  0  0  0
  9 10  1  0  0  0  0
  9 11  1  0  0  0  0
 12 13  4  0  0  0  0
 13 14  1  0  0  0  0
 14 15  1  0  0  0  0
 15 16  4  0  0  0  0
 15 20  4  0  0  0  0
 16 17  4  0  0  0  0
 17 18  4  0  0  0  0
 18 19  4  0  0  0  0
 19 20  4  0  0  0  0
M  CHG  3   9   1  10  -1  11  -1
M  END
>  <Name_Molregno>
nimesulide

>  <5-HT1A>
5

>  <5-HT1B>
5

>  <5-HT1D>
5

>  <5-HT1E>
5

>  <5-HT2A>
5

>  <5-HT3>
5

>  <5-HT5>
5

>  <5-HT6>
5

>  <5-HT7>
5

>  <Alpha-1A>
5

>  <Alpha-1B>
5

>  <Alpha-2A>
5

>  <Alpha-2B>
5

>  <Alpha-2C>
5

>  <DOPAMINE D1>
5

>  <DOPAMINE D2>
5

>  <DOPAMINE D4>
5

>  <DOPAMINE D5>
5

>  <Dopamine transporter>
5

>  <HISTAMINE H1>
5

>  <HISTAMINE H2>
5

>  <HISTAMINE H4>
5

>  <Muscarinic acetylcholine receptor M2>
5

>  <Muscarinic acetylcholine receptor M5>
5

>  <Norepinephrine transporter>
5

>  <Serotonin transporter>
5

$$$$
NOREPINEPHRINE
  Marvin  02231216192D 0   1.00000     0.00000     0

 12 12  0  0  1  0  0  0  0  0999 V2000
    3.1670    0.8378    0.0000 O   0  0  0  0  0  0  0  0  0
    2.4525    0.4253    0.0000 C   0  0  0  0  0  0  0  0  0
    2.4525   -0.3997    0.0000 C   0  0  0  0  0  0  0  0  0
    1.7381   -0.8122    0.0000 C   0  0  0  0  0  0  0  0  0
    1.0236   -0.3997    0.0000 C   0  0  0  0  0  0  0  0  0
    1.0236    0.4253    0.0000 C   0  0  0  0  0  0  0  0  0
    1.7381    0.8378    0.0000 C   0  0  0  0  0  0  0  0  0
    1.7381    1.6628    0.0000 O   0  0  0  0  0  0  0  0  0
    1.7381   -1.6372    0.0000 C   0  0  0  0  0  0  0  0  0
    2.4525   -2.0497    0.0000 O   0  0  0  0  0  0  0  0  0
    1.0236   -2.0497    0.0000 C   0  0  0  0  0  0  0  0  0
    1.0236   -2.8747    0.0000 N   0  0  0  0  0  0  0  0  0
  1  2  1  0  0  0  0
  2  3  4  0  0  0  0
  2  7  4  0  0  0  0
  3  4  4  0  0  0  0
  4  5  4  0  0  0  0
  4  9  1  0  0  0  0
  5  6  4  0  0  0  0
  6  7  4  0  0  0  0
  7  8  1  0  0  0  0
  9 10  1  0  0  0  0
  9 11  1  0  0  0  0
 11 12  1  0  0  0  0
M  END
>  <Name_Molregno>
NOREPINEPHRINE

>  <5-HT1A>
5

>  <5-HT2A>
5

>  <5-HT3>
5

>  <5-HT7>
5

>  <Alpha-1A>
5.33

>  <Alpha-1B>
5.1

>  <Alpha-2A>
6.32

>  <Alpha-2B>
6.02

>  <Alpha-2C>
6.43

>  <Beta-1>
5.45

>  <Beta-2>
4.9

>  <DOPAMINE D1>
5

>  <DOPAMINE D2>
5

>  <DOPAMINE D5>
5

>  <Dopamine transporter>
5.02

$$$$
OLANZAPINE
  Marvin  02231216192D 0   1.00000     0.00000     0

 22 25  0  0  0  0  0  0  0  0999 V2000
   -1.5954    3.4952    0.0000 S   0  0  0  0  0  0  0  0  0
   -0.8919    3.0642    0.0000 C   0  0  0  0  0  0  0  0  0
   -0.1447    3.4138    0.0000 N   0  0  0  0  0  0  0  0  0
    0.5946    3.0476    0.0000 C   0  0  0  0  0  0  0  0  0
    0.7691    2.2413    0.0000 C   0  0  0  0  0  0  0  0  0
    0.2476    1.6020    0.0000 N   0  0  0  0  0  0  0  0  0
   -0.5774    1.6113    0.0000 C   0  0  0  0  0  0  0  0  0
   -0.9436    0.8720    0.0000 N   0  0  0  0  0  0  0  0  0
   -0.4865    0.1852    0.0000 C   0  0  0  0  0  0  0  0  0
   -0.8527   -0.5540    0.0000 C   0  0  0  0  0  0  0  0  0
   -1.6761   -0.6065    0.0000 N   0  0  0  0  0  0  0  0  0
   -2.1332    0.0803    0.0000 C   0  0  0  0  0  0  0  0  0
   -1.7669    0.8196    0.0000 C   0  0  0  0  0  0  0  0  0
   -2.0423   -1.3458    0.0000 C   0  0  0  0  0  0  0  0  0
   -1.0845    2.2620    0.0000 C   0  0  0  0  0  0  0  0  0
   -1.9069    2.1972    0.0000 C   0  0  0  0  0  0  0  0  0
   -2.2227    2.9594    0.0000 C   0  0  0  0  0  0  0  0  0
   -3.0249    3.1520    0.0000 C   0  0  0  0  0  0  0  0  0
    1.5547    1.9893    0.0000 C   0  0  0  0  0  0  0  0  0
    2.1657    2.5436    0.0000 C   0  0  0  0  0  0  0  0  0
    1.9912    3.3499    0.0000 C   0  0  0  0  0  0  0  0  0
    1.2056    3.6019    0.0000 C   0  0  0  0  0  0  0  0  0
  1  2  1  0  0  0  0
  1 17  1  0  0  0  0
  2  3  2  0  0  0  0
  2 15  1  0  0  0  0
  3  4  1  0  0  0  0
  4  5  4  0  0  0  0
  4 22  4  0  0  0  0
  5  6  1  0  0  0  0
  5 19  4  0  0  0  0
  6  7  1  0  0  0  0
  7  8  1  0  0  0  0
  7 15  2  0  0  0  0
  8  9  1  0  0  0  0
  8 13  1  0  0  0  0
  9 10  1  0  0  0  0
 10 11  1  0  0  0  0
 11 12  1  0  0  0  0
 11 14  1  0  0  0  0
 12 13  1  0  0  0  0
 15 16  1  0  0  0  0
 16 17  2  0  0  0  0
 17 18  1  0  0  0  0
 19 20  4  0  0  0  0
 20 21  4  0  0  0  0
 21 22  4  0  0  0  0
M  END
>  <Name_Molregno>
OLANZAPINE

>  <5-HT1A>
5.77

>  <5-HT1B>
6.23

>  <5-HT1D>
6.3

>  <5-HT1E>
5.66

>  <5-HT2A>
8.46

>  <5-HT2C>
7.86

>  <5-HT3>
6.69

>  <5-HT5>
5.92

>  <5-HT6>
7.97

>  <5-HT7>
6.73

>  <Alpha-1A>
6.95

>  <Alpha-1B>
6.58

>  <Alpha-2A>
6.51

>  <Alpha-2B>
6.97

>  <Alpha-2C>
7.21

>  <Beta-1>
5.15

>  <Beta-2>
5.15

>  <DOPAMINE D1>
7.3

>  <DOPAMINE D2>
7.67

>  <DOPAMINE D3>
7.53

>  <DOPAMINE D4>
7.73

>  <DOPAMINE D5>
7.09

>  <Dopamine transporter>
5

>  <HISTAMINE H1>
8.96

>  <HISTAMINE H2>
7.36

>  <HISTAMINE H4>
5

>  <Muscarinic acetylcholine receptor M1>
7.99

>  <Muscarinic acetylcholine receptor M2>
6.93

>  <Muscarinic acetylcholine receptor M3>
7.33

>  <Muscarinic acetylcholine receptor M4>
7.35

>  <Muscarinic acetylcholine receptor M5>
7.78

>  <Norepinephrine transporter>
5

>  <Serotonin transporter>
5.48

$$$$
OLANZAPINE-2
  Marvin  02231216192D 0   1.00000     0.00000     0

 22 25  0  0  0  0  0  0  0  0999 V2000
   -1.5954    3.4952    0.0000 S   0  0  0  0  0  0  0  0  0
   -0.8919    3.0642    0.0000 C   0  0  0  0  0  0  0  0  0
   -0.1447    3.4138    0.0000 N   0  0  0  0  0  0  0  0  0
    0.5946    3.0476    0.0000 C   0  0  0  0  0  0  0  0  0
    0.7691    2.2413    0.0000 C   0  0  0  0  0  0  0  0  0
    0.2476    1.6020    0.0000 N   0  0  0  0  0  0  0  0  0
   -0.5774    1.6113    0.0000 C   0  0  0  0  0  0  0  0  0
   -0.9436    0.8720    0.0000 N   0  0  0  0  0  0  0  0  0
   -0.4865    0.1852    0.0000 C   0  0  0  0  0  0  0  0  0
   -0.8527   -0.5540    0.0000 C   0  0  0  0  0  0  0  0  0
   -1.6761   -0.6065    0.0000 N   0  0  0  0  0  0  0  0  0
   -2.1332    0.0803    0.0000 C   0  0  0  0  0  0  0  0  0
   -1.7669    0.8196    0.0000 C   0  0  0  0  0  0  0  0  0
   -2.0423   -1.3458    0.0000 C   0  0  0  0  0  0  0  0  0
   -1.0845    2.2620    0.0000 C   0  0  0  0  0  0  0  0  0
   -1.9069    2.1972    0.0000 C   0  0  0  0  0  0  0  0  0
   -2.2227    2.9594    0.0000 C   0  0  0  0  0  0  0  0  0
   -3.0249    3.1520    0.0000 C   0  0  0  0  0  0  0  0  0
    1.5547    1.9893    0.0000 C   0  0  0  0  0  0  0  0  0
    2.1657    2.5436    0.0000 C   0  0  0  0  0  0  0  0  0
    1.9912    3.3499    0.0000 C   0  0  0  0  0  0  0  0  0
    1.2056    3.6019    0.0000 C   0  0  0  0  0  0  0  0  0
  1  2  4  0  0  0  0
  1 17  4  0  0  0  0
  2  3  1  0  0  0  0
  2 15  4  0  0  0  0
  3  4  1  0  0  0  0
  4  5  4  0  0  0  0
  4 22  4  0  0  0  0
  5  6  1  0  0  0  0
  5 19  4  0  0  0  0
  6  7  2  0  0  0  0
  7  8  1  0  0  0  0
  7 15  1  0  0  0  0
  8  9  1  0  0  0  0
  8 13  1  0  0  0  0
  9 10  1  0  0  0  0
 10 11  1  0  0  0  0
 11 12  1  0  0  0  0
 11 14  1  0  0  0  0
 12 13  1  0  0  0  0
 15 16  4  0  0  0  0
 16 17  4  0  0  0  0
 17 18  1  0  0  0  0
 19 20  4  0  0  0  0
 20 21  4  0  0  0  0
 21 22  4  0  0  0  0
M  END
>  <Name_Molregno>
OLANZAPINE-2

>  <5-HT1A>
5.68

>  <5-HT2A>
8.66

>  <5-HT2C>
8.05

>  <5-HT3>
6.7

>  <5-HT6>
7.8

>  <5-HT7>
6.77

>  <Alpha-2A>
6.72

>  <Alpha-2C>
7.09

>  <DOPAMINE D1>
7.28

>  <DOPAMINE D2>
7.63

>  <DOPAMINE D3>
7.47

>  <DOPAMINE D4>
7.3

>  <HISTAMINE H1>
8.74

>  <Muscarinic acetylcholine receptor M1>
8.16

>  <Muscarinic acetylcholine receptor M4>
7.9

>  <Serotonin transporter>
4.82

$$$$
ORG-5222
  Marvin  02231216192D 0   1.00000     0.00000     0

 20 23  0  0  1  0  0  0  0  0999 V2000
   -0.0754   -0.1702    0.0000 Cl  0  0  0  0  0  0  0  0  0
    0.7129   -0.4133    0.0000 C   0  0  0  0  0  0  0  0  0
    1.3177    0.1478    0.0000 C   0  0  0  0  0  0  0  0  0
    2.1060   -0.0954    0.0000 C   0  0  0  0  0  0  0  0  0
    2.6204    0.5496    0.0000 C   0  0  0  0  0  0  0  0  0
    3.4454    0.5496    0.0000 C   0  0  0  0  0  0  0  0  0
    3.9598   -0.0954    0.0000 C   0  0  0  0  0  0  0  0  0
    3.7762   -0.8997    0.0000 C   0  0  0  0  0  0  0  0  0
    3.0329   -1.2576    0.0000 O   0  0  0  0  0  0  0  0  0
    2.2896   -0.8997    0.0000 C   0  0  0  0  0  0  0  0  0
    1.6849   -1.4608    0.0000 C   0  0  0  0  0  0  0  0  0
    0.8965   -1.2176    0.0000 C   0  0  0  0  0  0  0  0  0
    4.3810   -1.4608    0.0000 C   0  0  0  0  0  0  0  0  0
    5.1693   -1.2176    0.0000 C   0  0  0  0  0  0  0  0  0
    5.3529   -0.4133    0.0000 C   0  0  0  0  0  0  0  0  0
    4.7482    0.1478    0.0000 C   0  0  0  0  0  0  0  0  0
    3.7004    1.3343    0.0000 C   0  0  0  0  0  0  0  0  0
    3.0329    1.8192    0.0000 N   0  0  0  0  0  0  0  0  0
    2.3655    1.3343    0.0000 C   0  0  0  0  0  0  0  0  0
    3.0329    2.6442    0.0000 C   0  0  0  0  0  0  0  0  0
  1  2  1  0  0  0  0
  2  3  4  0  0  0  0
  2 12  4  0  0  0  0
  3  4  4  0  0  0  0
  4  5  1  0  0  0  0
  4 10  4  0  0  0  0
  5  6  1  0  0  0  0
  5 19  1  0  0  0  0
  6  7  1  0  0  0  0
  6 17  1  0  0  0  0
  7  8  4  0  0  0  0
  7 16  4  0  0  0  0
  8  9  1  0  0  0  0
  8 13  4  0  0  0  0
  9 10  1  0  0  0  0
 10 11  4  0  0  0  0
 11 12  4  0  0  0  0
 13 14  4  0  0  0  0
 14 15  4  0  0  0  0
 15 16  4  0  0  0  0
 17 18  1  0  0  0  0
 18 19  1  0  0  0  0
 18 20  1  0  0  0  0
M  END
>  <Name_Molregno>
ORG-5222

>  <5-HT1A>
7.7

>  <5-HT1B>
8.34

>  <5-HT1D>
8.07

>  <5-HT1E>
7.69

>  <5-HT2A>
9.41

>  <5-HT2C>
9.63

>  <5-HT3>
6.35

>  <5-HT5>
8.4

>  <5-HT6>
8.85

>  <5-HT7>
9.05

>  <Alpha-1A>
8.36

>  <Alpha-1B>
8.41

>  <Alpha-2A>
8.08

>  <Alpha-2B>
8.64

>  <Alpha-2C>
7.82

>  <Beta-1>
5.3

>  <Beta-2>
5.3

>  <DOPAMINE D1>
8.54

>  <DOPAMINE D2>
8.72

>  <DOPAMINE D3>
8.74

>  <DOPAMINE D4>
8.58

>  <DOPAMINE D5>
7.64

>  <Dopamine transporter>
5.5

>  <HISTAMINE H1>
8.91

>  <HISTAMINE H2>
8.64

>  <HISTAMINE H4>
5

>  <Muscarinic acetylcholine receptor M1>
7.61

>  <Muscarinic acetylcholine receptor M2>
7.1

>  <Muscarinic acetylcholine receptor M3>
7.41

>  <Muscarinic acetylcholine receptor M4>
5

>  <Muscarinic acetylcholine receptor M5>
8.02

>  <Norepinephrine transporter>
5

>  <Serotonin transporter>
5.5

$$$$
OXYMETAZOLINE
  Marvin  02231216192D 0   1.00000     0.00000     0

 19 20  0  0  0  0  0  0  0  0999 V2000
    0.9329    3.7345    0.0000 O   0  0  0  0  0  0  0  0  0
    0.9329    2.9095    0.0000 C   0  0  0  0  0  0  0  0  0
    1.6474    2.4970    0.0000 C   0  0  0  0  0  0  0  0  0
    2.3619    2.9095    0.0000 C   0  0  0  0  0  0  0  0  0
    1.6474    1.6720    0.0000 C   0  0  0  0  0  0  0  0  0
    2.3619    1.2595    0.0000 C   0  0  0  0  0  0  0  0  0
    2.3619    0.4345    0.0000 C   0  0  0  0  0  0  0  0  0
    3.0293   -0.0504    0.0000 N   0  0  0  0  0  0  0  0  0
    2.7744   -0.8351    0.0000 C   0  0  0  0  0  0  0  0  0
    1.9494   -0.8351    0.0000 C   0  0  0  0  0  0  0  0  0
    1.6945   -0.0504    0.0000 N   0  0  0  0  0  0  0  0  0
    0.9329    1.2595    0.0000 C   0  0  0  0  0  0  0  0  0
    0.2185    1.6720    0.0000 C   0  0  0  0  0  0  0  0  0
    0.2185    2.4970    0.0000 C   0  0  0  0  0  0  0  0  0
   -0.4960    2.9095    0.0000 C   0  0  0  0  0  0  0  0  0
   -1.2105    3.3220    0.0000 C   0  0  0  0  0  0  0  0  0
   -0.0835    3.6240    0.0000 C   0  0  0  0  0  0  0  0  0
   -0.9085    2.1950    0.0000 C   0  0  0  0  0  0  0  0  0
    0.9329    0.4345    0.0000 C   0  0  0  0  0  0  0  0  0
  1  2  1  0  0  0  0
  2  3  4  0  0  0  0
  2 14  4  0  0  0  0
  3  4  1  0  0  0  0
  3  5  4  0  0  0  0
  5  6  1  0  0  0  0
  5 12  4  0  0  0  0
  6  7  1  0  0  0  0
  7  8  1  0  0  0  0
  7 11  2  0  0  0  0
  8  9  1  0  0  0  0
  9 10  1  0  0  0  0
 10 11  1  0  0  0  0
 12 13  4  0  0  0  0
 12 19  1  0  0  0  0
 13 14  4  0  0  0  0
 14 15  1  0  0  0  0
 15 16  1  0  0  0  0
 15 17  1  0  0  0  0
 15 18  1  0  0  0  0
M  END
>  <Name_Molregno>
OXYMETAZOLINE

>  <5-HT1B>
9.59

>  <5-HT1E>
6.38

>  <5-HT2A>
6.59

>  <5-HT2C>
6.92

>  <Alpha-2A>
8.45

>  <Alpha-2B>
6.02

>  <Alpha-2C>
6.95

$$$$
PARECOXIB
  Marvin  02231216192D 0   1.00000     0.00000     0

 26 28  0  0  0  0  0  0  0  0999 V2000
    3.2898   -1.2399    0.0000 S   0  0  0  0  0  0  0  0  0
    3.7023   -0.5254    0.0000 O   0  0  0  0  0  0  0  0  0
    2.8773   -1.9544    0.0000 O   0  0  0  0  0  0  0  0  0
    4.0042   -1.6524    0.0000 N   0  0  0  0  0  0  0  0  0
    4.7187   -1.2399    0.0000 C   0  0  0  0  0  0  0  0  0
    4.7187   -0.4149    0.0000 O   0  0  0  0  0  0  0  0  0
    5.4332   -1.6524    0.0000 C   0  0  0  0  0  0  0  0  0
    6.1476   -1.2399    0.0000 C   0  0  0  0  0  0  0  0  0
    2.5753   -0.8274    0.0000 C   0  0  0  0  0  0  0  0  0
    1.8608   -1.2399    0.0000 C   0  0  0  0  0  0  0  0  0
    1.1463   -0.8274    0.0000 C   0  0  0  0  0  0  0  0  0
    1.1463   -0.0024    0.0000 C   0  0  0  0  0  0  0  0  0
    1.8608    0.4101    0.0000 C   0  0  0  0  0  0  0  0  0
    2.5753   -0.0024    0.0000 C   0  0  0  0  0  0  0  0  0
    0.4319    0.4101    0.0000 C   0  0  0  0  0  0  0  0  0
   -0.3218    0.0745    0.0000 C   0  0  0  0  0  0  0  0  0
   -0.8738    0.6876    0.0000 N   0  0  0  0  0  0  0  0  0
   -0.4613    1.4021    0.0000 O   0  0  0  0  0  0  0  0  0
    0.3456    1.2306    0.0000 C   0  0  0  0  0  0  0  0  0
    0.9587    1.7826    0.0000 C   0  0  0  0  0  0  0  0  0
   -0.4933   -0.7324    0.0000 C   0  0  0  0  0  0  0  0  0
    0.1198   -1.2845    0.0000 C   0  0  0  0  0  0  0  0  0
   -0.0518   -2.0914    0.0000 C   0  0  0  0  0  0  0  0  0
   -0.8364   -2.3464    0.0000 C   0  0  0  0  0  0  0  0  0
   -1.4495   -1.7943    0.0000 C   0  0  0  0  0  0  0  0  0
   -1.2779   -0.9874    0.0000 C   0  0  0  0  0  0  0  0  0
  1  2  2  0  0  0  0
  1  3  2  0  0  0  0
  1  4  1  0  0  0  0
  1  9  1  0  0  0  0
  4  5  1  0  0  0  0
  5  6  2  0  0  0  0
  5  7  1  0  0  0  0
  7  8  1  0  0  0  0
  9 10  4  0  0  0  0
  9 14  4  0  0  0  0
 10 11  4  0  0  0  0
 11 12  4  0  0  0  0
 12 13  4  0  0  0  0
 12 15  1  0  0  0  0
 13 14  4  0  0  0  0
 15 16  4  0  0  0  0
 15 19  4  0  0  0  0
 16 17  4  0  0  0  0
 16 21  1  0  0  0  0
 17 18  4  0  0  0  0
 18 19  4  0  0  0  0
 19 20  1  0  0  0  0
 21 22  4  0  0  0  0
 21 26  4  0  0  0  0
 22 23  4  0  0  0  0
 23 24  4  0  0  0  0
 24 25  4  0  0  0  0
 25 26  4  0  0  0  0
M  END
>  <Name_Molregno>
PARECOXIB

>  <5-HT1A>
5

>  <5-HT1B>
5

>  <5-HT1D>
5

>  <5-HT1E>
5

>  <5-HT2A>
5

>  <5-HT3>
5

>  <5-HT6>
5

>  <5-HT7>
5

>  <Alpha-1A>
5

>  <Alpha-1B>
5

>  <Alpha-2A>
5

>  <Alpha-2B>
5

>  <Alpha-2C>
5

>  <DOPAMINE D1>
5

>  <DOPAMINE D2>
5

>  <DOPAMINE D4>
5

>  <DOPAMINE D5>
5

>  <Dopamine transporter>
5

>  <HISTAMINE H1>
5

>  <HISTAMINE H2>
5

>  <HISTAMINE H4>
5

>  <Muscarinic acetylcholine receptor M2>
5

>  <Muscarinic acetylcholine receptor M5>
5

>  <Norepinephrine transporter>
5

>  <Serotonin transporter>
5

$$$$
PAROXETINE
  Marvin  02231216192D 0   1.00000     0.00000     0

 24 27  0  0  1  0  0  0  0  0999 V2000
   -1.1156    1.2820    0.0000 F   0  0  0  0  0  0  0  0  0
   -1.1156    0.4570    0.0000 C   0  0  0  0  0  0  0  0  0
   -0.4011    0.0445    0.0000 C   0  0  0  0  0  0  0  0  0
   -0.4011   -0.7805    0.0000 C   0  0  0  0  0  0  0  0  0
   -1.1156   -1.1930    0.0000 C   0  0  0  0  0  0  0  0  0
   -1.8301   -0.7805    0.0000 C   0  0  0  0  0  0  0  0  0
   -1.8301    0.0445    0.0000 C   0  0  0  0  0  0  0  0  0
   -1.1156   -2.0180    0.0000 C   0  0  0  0  0  0  0  0  0
   -0.4011   -2.4305    0.0000 C   0  0  0  0  0  0  0  0  0
   -0.4011   -3.2555    0.0000 C   0  0  0  0  0  0  0  0  0
   -1.1156   -3.6680    0.0000 N   0  0  0  0  0  0  0  0  0
   -1.8301   -3.2555    0.0000 C   0  0  0  0  0  0  0  0  0
   -1.8301   -2.4305    0.0000 C   0  0  0  0  0  0  0  0  0
   -2.5445   -2.0180    0.0000 C   0  0  0  0  0  0  0  0  0
   -3.2590   -2.4305    0.0000 O   0  0  0  0  0  0  0  0  0
   -3.9735   -2.0180    0.0000 C   0  0  0  0  0  0  0  0  0
   -4.6880   -2.4305    0.0000 C   0  0  0  0  0  0  0  0  0
   -5.4024   -2.0180    0.0000 C   0  0  0  0  0  0  0  0  0
   -6.1870   -2.2729    0.0000 O   0  0  0  0  0  0  0  0  0
   -6.6720   -1.6055    0.0000 C   0  0  0  0  0  0  0  0  0
   -6.1870   -0.9380    0.0000 O   0  0  0  0  0  0  0  0  0
   -5.4024   -1.1930    0.0000 C   0  0  0  0  0  0  0  0  0
   -4.6880   -0.7805    0.0000 C   0  0  0  0  0  0  0  0  0
   -3.9735   -1.1930    0.0000 C   0  0  0  0  0  0  0  0  0
  1  2  1  0  0  0  0
  2  3  4  0  0  0  0
  2  7  4  0  0  0  0
  3  4  4  0  0  0  0
  4  5  4  0  0  0  0
  5  6  4  0  0  0  0
  5  8  1  0  0  0  0
  6  7  4  0  0  0  0
  8  9  1  0  0  0  0
  8 13  1  0  0  0  0
  9 10  1  0  0  0  0
 10 11  1  0  0  0  0
 11 12  1  0  0  0  0
 12 13  1  0  0  0  0
 13 14  1  0  0  0  0
 14 15  1  0  0  0  0
 15 16  1  0  0  0  0
 16 17  4  0  0  0  0
 16 24  4  0  0  0  0
 17 18  4  0  0  0  0
 18 19  1  0  0  0  0
 18 22  4  0  0  0  0
 19 20  1  0  0  0  0
 20 21  1  0  0  0  0
 21 22  1  0  0  0  0
 22 23  4  0  0  0  0
 23 24  4  0  0  0  0
M  END
>  <Name_Molregno>
PAROXETINE

>  <5-HT1A>
5

>  <5-HT2A>
5

>  <5-HT2C>
5

>  <DOPAMINE D2>
5

>  <Dopamine transporter>
6.33

>  <HISTAMINE H1>
5

>  <Muscarinic acetylcholine receptor M1>
6.83

>  <Muscarinic acetylcholine receptor M2>
6.47

>  <Muscarinic acetylcholine receptor M3>
7.1

>  <Muscarinic acetylcholine receptor M4>
6.49

>  <Muscarinic acetylcholine receptor M5>
6.19

>  <Norepinephrine transporter>
7.03

>  <Serotonin transporter>
9.7

$$$$
PBR28
  Marvin  02231216192D 0   1.00000     0.00000     0

 26 28  0  0  0  0  0  0  0  0999 V2000
    0.4191    0.0796    0.0000 O   0  0  0  0  0  0  0  0  0
    0.4191   -0.7454    0.0000 C   0  0  0  0  0  0  0  0  0
    1.1336   -1.1579    0.0000 C   0  0  0  0  0  0  0  0  0
    1.1336   -1.9829    0.0000 C   0  0  0  0  0  0  0  0  0
    0.4191   -2.3954    0.0000 C   0  0  0  0  0  0  0  0  0
   -0.2953   -1.9829    0.0000 C   0  0  0  0  0  0  0  0  0
   -0.2953   -1.1579    0.0000 C   0  0  0  0  0  0  0  0  0
   -1.0098   -0.7454    0.0000 N   0  0  0  0  0  0  0  0  0
   -1.7243   -1.1579    0.0000 C   0  0  0  0  0  0  0  0  0
   -2.4387   -0.7454    0.0000 C   0  0  0  0  0  0  0  0  0
   -2.4387    0.0796    0.0000 C   0  0  0  0  0  0  0  0  0
   -3.1532    0.4921    0.0000 C   0  0  0  0  0  0  0  0  0
   -3.8677    0.0796    0.0000 C   0  0  0  0  0  0  0  0  0
   -3.8677   -0.7454    0.0000 C   0  0  0  0  0  0  0  0  0
   -3.1532   -1.1579    0.0000 C   0  0  0  0  0  0  0  0  0
   -3.1532   -1.9829    0.0000 O   0  0  0  0  0  0  0  0  0
   -3.8677   -2.3954    0.0000 C   0  0  0  0  0  0  0  0  0
   -1.0098    0.0796    0.0000 C   0  0  0  0  0  0  0  0  0
   -1.7243    0.4921    0.0000 O   0  0  0  0  0  0  0  0  0
   -0.2953    0.4921    0.0000 C   0  0  0  0  0  0  0  0  0
    1.1336    0.4921    0.0000 C   0  0  0  0  0  0  0  0  0
    1.1336    1.3171    0.0000 C   0  0  0  0  0  0  0  0  0
    1.8481    1.7296    0.0000 C   0  0  0  0  0  0  0  0  0
    2.5626    1.3171    0.0000 C   0  0  0  0  0  0  0  0  0
    2.5626    0.4921    0.0000 C   0  0  0  0  0  0  0  0  0
    1.8481    0.0796    0.0000 C   0  0  0  0  0  0  0  0  0
  1  2  1  0  0  0  0
  1 21  1  0  0  0  0
  2  3  4  0  0  0  0
  2  7  4  0  0  0  0
  3  4  4  0  0  0  0
  4  5  4  0  0  0  0
  5  6  4  0  0  0  0
  6  7  4  0  0  0  0
  7  8  1  0  0  0  0
  8  9  1  0  0  0  0
  8 18  1  0  0  0  0
  9 10  1  0  0  0  0
 10 11  4  0  0  0  0
 10 15  4  0  0  0  0
 11 12  4  0  0  0  0
 12 13  4  0  0  0  0
 13 14  4  0  0  0  0
 14 15  4  0  0  0  0
 15 16  1  0  0  0  0
 16 17  1  0  0  0  0
 18 19  2  0  0  0  0
 18 20  1  0  0  0  0
 21 22  4  0  0  0  0
 21 26  4  0  0  0  0
 22 23  4  0  0  0  0
 23 24  4  0  0  0  0
 24 25  4  0  0  0  0
 25 26  4  0  0  0  0
M  END
>  <Name_Molregno>
PBR28

>  <5-HT1A>
5

>  <5-HT1B>
5

>  <5-HT1D>
5

>  <5-HT1E>
5

>  <5-HT2A>
5

>  <5-HT3>
5

>  <5-HT5>
5

>  <5-HT6>
5

>  <5-HT7>
5

>  <Alpha-1A>
5

>  <Alpha-1B>
5

>  <Alpha-2A>
5

>  <Alpha-2B>
5

>  <Alpha-2C>
5

>  <Beta-1>
5

>  <Beta-2>
5

>  <DOPAMINE D1>
5

>  <DOPAMINE D2>
5

>  <DOPAMINE D4>
5

>  <Dopamine transporter>
5

>  <HISTAMINE H1>
5

>  <HISTAMINE H2>
5

>  <HISTAMINE H4>
5

>  <Muscarinic acetylcholine receptor M2>
5

>  <Muscarinic acetylcholine receptor M5>
5

>  <Norepinephrine transporter>
5

>  <Serotonin transporter>
5

$$$$
PERGOLIDE
  Marvin  02231216192D 0   1.00000     0.00000     0

 22 25  0  0  1  0  0  0  0  0999 V2000
    2.3775   -0.9399    0.0000 S   0  0  0  0  0  0  0  0  0
    1.6635   -0.5265    0.0000 C   0  0  0  0  0  0  0  0  0
    1.6645    0.2985    0.0000 C   0  0  0  0  0  0  0  0  0
    2.3795    0.7101    0.0000 C   0  0  0  0  0  0  0  0  0
    2.3805    1.5351    0.0000 C   0  0  0  0  0  0  0  0  0
    1.6665    1.9485    0.0000 C   0  0  0  0  0  0  0  0  0
    0.9515    1.5368    0.0000 N   0  0  0  0  0  0  0  0  0
    0.9505    0.7118    0.0000 C   0  0  0  0  0  0  0  0  0
    0.2376    1.9502    0.0000 C   0  0  0  0  0  0  0  0  0
   -0.4774    1.5385    0.0000 C   0  0  0  0  0  0  0  0  0
   -1.1914    1.9519    0.0000 C   0  0  0  0  0  0  0  0  0
    1.6680    2.7726    0.0000 C   0  0  0  0  0  0  0  0  0
    2.3805    3.1851    0.0000 C   0  0  0  0  0  0  0  0  0
    3.0930    2.7726    0.0000 C   0  0  0  0  0  0  0  0  0
    3.0930    1.9476    0.0000 C   0  0  0  0  0  0  0  0  0
    3.8108    1.5351    0.0000 C   0  0  0  0  0  0  0  0  0
    4.5233    1.9476    0.0000 C   0  0  0  0  0  0  0  0  0
    4.5233    2.7726    0.0000 C   0  0  0  0  0  0  0  0  0
    3.8108    3.1851    0.0000 C   0  0  0  0  0  0  0  0  0
    3.5055    4.0422    0.0000 N   0  0  0  0  0  0  0  0  0
    2.6805    4.0422    0.0000 C   0  0  0  0  0  0  0  0  0
    2.3765   -1.7649    0.0000 C   0  0  0  0  0  0  0  0  0
  1  2  1  0  0  0  0
  1 22  1  0  0  0  0
  2  3  1  0  0  0  0
  3  4  1  0  0  0  0
  3  8  1  0  0  0  0
  4  5  1  0  0  0  0
  5  6  1  0  0  0  0
  5 15  1  0  0  0  0
  6  7  1  0  0  0  0
  6 12  1  0  0  0  0
  7  8  1  0  0  0  0
  7  9  1  0  0  0  0
  9 10  1  0  0  0  0
 10 11  1  0  0  0  0
 12 13  1  0  0  0  0
 13 14  4  0  0  0  0
 13 21  4  0  0  0  0
 14 15  4  0  0  0  0
 14 19  4  0  0  0  0
 15 16  4  0  0  0  0
 16 17  4  0  0  0  0
 17 18  4  0  0  0  0
 18 19  4  0  0  0  0
 19 20  4  0  0  0  0
 20 21  4  0  0  0  0
M  STY  1   1 DAT
M  SAL   1  1  20
M  SDT   1 MRV_IMPLICIT_H                                        
M  SDD   1     0.0000    0.0000    DR    ALL  0       0  
M  SED   1 IMPL_H1
M  END
>  <Name_Molregno>
PERGOLIDE

>  <5-HT1A>
8.56

>  <5-HT1B>
6.55

>  <5-HT1D>
7.88

>  <5-HT2A>
8.08

>  <5-HT2C>
6.53

>  <Alpha-1A>
5.98

>  <Alpha-1B>
6.16

>  <Alpha-2A>
7.3

>  <Alpha-2B>
7.49

>  <Alpha-2C>
7.17

>  <Beta-1>
5

>  <Beta-2>
5

>  <DOPAMINE D1>
6.17

>  <DOPAMINE D2>
7.8

>  <DOPAMINE D3>
8.59

>  <DOPAMINE D4>
7.25

>  <DOPAMINE D5>
6.76

$$$$
PERPHENAZINE
  Marvin  02231216192D 0   1.00000     0.00000     0

 27 30  0  0  0  0  0  0  0  0999 V2000
   -5.2850   -0.3290    0.0000 Cl  0  0  0  0  0  0  0  0  0
   -4.5705    0.0835    0.0000 C   0  0  0  0  0  0  0  0  0
   -3.8561   -0.3290    0.0000 C   0  0  0  0  0  0  0  0  0
   -3.1416    0.0835    0.0000 C   0  0  0  0  0  0  0  0  0
   -2.4271   -0.3290    0.0000 N   0  0  0  0  0  0  0  0  0
   -1.7126    0.0835    0.0000 C   0  0  0  0  0  0  0  0  0
   -1.7126    0.9085    0.0000 C   0  0  0  0  0  0  0  0  0
   -2.4271    1.3210    0.0000 S   0  0  0  0  0  0  0  0  0
   -3.1416    0.9085    0.0000 C   0  0  0  0  0  0  0  0  0
   -3.8561    1.3210    0.0000 C   0  0  0  0  0  0  0  0  0
   -4.5705    0.9085    0.0000 C   0  0  0  0  0  0  0  0  0
   -0.9982    1.3210    0.0000 C   0  0  0  0  0  0  0  0  0
   -0.2837    0.9085    0.0000 C   0  0  0  0  0  0  0  0  0
   -0.2837    0.0835    0.0000 C   0  0  0  0  0  0  0  0  0
   -0.9982   -0.3290    0.0000 C   0  0  0  0  0  0  0  0  0
   -2.4271   -1.1540    0.0000 C   0  0  0  0  0  0  0  0  0
   -3.1416   -1.5665    0.0000 C   0  0  0  0  0  0  0  0  0
   -3.1416   -2.3915    0.0000 C   0  0  0  0  0  0  0  0  0
   -3.8561   -2.8040    0.0000 N   0  0  0  0  0  0  0  0  0
   -3.8561   -3.6290    0.0000 C   0  0  0  0  0  0  0  0  0
   -4.5705   -4.0415    0.0000 C   0  0  0  0  0  0  0  0  0
   -5.2850   -3.6290    0.0000 N   0  0  0  0  0  0  0  0  0
   -5.2850   -2.8040    0.0000 C   0  0  0  0  0  0  0  0  0
   -4.5705   -2.3915    0.0000 C   0  0  0  0  0  0  0  0  0
   -5.9995   -4.0415    0.0000 C   0  0  0  0  0  0  0  0  0
   -6.7139   -3.6290    0.0000 C   0  0  0  0  0  0  0  0  0
   -7.4284   -4.0415    0.0000 O   0  0  0  0  0  0  0  0  0
  1  2  1  0  0  0  0
  2  3  4  0  0  0  0
  2 11  4  0  0  0  0
  3  4  4  0  0  0  0
  4  5  1  0  0  0  0
  4  9  4  0  0  0  0
  5  6  1  0  0  0  0
  5 16  1  0  0  0  0
  6  7  4  0  0  0  0
  6 15  4  0  0  0  0
  7  8  1  0  0  0  0
  7 12  4  0  0  0  0
  8  9  1  0  0  0  0
  9 10  4  0  0  0  0
 10 11  4  0  0  0  0
 12 13  4  0  0  0  0
 13 14  4  0  0  0  0
 14 15  4  0  0  0  0
 16 17  1  0  0  0  0
 17 18  1  0  0  0  0
 18 19  1  0  0  0  0
 19 20  1  0  0  0  0
 19 24  1  0  0  0  0
 20 21  1  0  0  0  0
 21 22  1  0  0  0  0
 22 23  1  0  0  0  0
 22 25  1  0  0  0  0
 23 24  1  0  0  0  0
 25 26  1  0  0  0  0
 26 27  1  0  0  0  0
M  END
>  <Name_Molregno>
PERPHENAZINE

>  <5-HT1A>
6.38

>  <5-HT2A>
8.25

>  <5-HT2C>
6.88

>  <5-HT6>
7.77

>  <5-HT7>
7.64

>  <Alpha-1A>
8

>  <Alpha-2A>
6.09

>  <Alpha-2B>
6.98

>  <Alpha-2C>
7.07

>  <DOPAMINE D2>
9.26

>  <DOPAMINE D3>
9.52

>  <DOPAMINE D4>
7.59

>  <HISTAMINE H1>
8.09

>  <Muscarinic acetylcholine receptor M3>
5.73

$$$$
PHENTOLAMINE
  Marvin  02231216192D 0   1.00000     0.00000     0

 21 23  0  0  0  0  0  0  0  0999 V2000
    4.7921    2.7933    0.0000 O   0  0  0  0  0  0  0  0  0
    4.0777    2.3808    0.0000 C   0  0  0  0  0  0  0  0  0
    4.0777    1.5558    0.0000 C   0  0  0  0  0  0  0  0  0
    3.3632    1.1433    0.0000 C   0  0  0  0  0  0  0  0  0
    3.3632    0.3183    0.0000 N   0  0  0  0  0  0  0  0  0
    4.0777   -0.0942    0.0000 C   0  0  0  0  0  0  0  0  0
    4.0777   -0.9192    0.0000 C   0  0  0  0  0  0  0  0  0
    4.7451   -1.4042    0.0000 N   0  0  0  0  0  0  0  0  0
    4.4902   -2.1888    0.0000 C   0  0  0  0  0  0  0  0  0
    3.6652   -2.1888    0.0000 C   0  0  0  0  0  0  0  0  0
    3.4102   -1.4042    0.0000 N   0  0  0  0  0  0  0  0  0
    2.6487   -0.0942    0.0000 C   0  0  0  0  0  0  0  0  0
    2.6487   -0.9192    0.0000 C   0  0  0  0  0  0  0  0  0
    1.9343   -1.3317    0.0000 C   0  0  0  0  0  0  0  0  0
    1.2198   -0.9192    0.0000 C   0  0  0  0  0  0  0  0  0
    1.2198   -0.0942    0.0000 C   0  0  0  0  0  0  0  0  0
    1.9343    0.3183    0.0000 C   0  0  0  0  0  0  0  0  0
    0.5053   -1.3317    0.0000 C   0  0  0  0  0  0  0  0  0
    2.6487    1.5558    0.0000 C   0  0  0  0  0  0  0  0  0
    2.6487    2.3808    0.0000 C   0  0  0  0  0  0  0  0  0
    3.3632    2.7933    0.0000 C   0  0  0  0  0  0  0  0  0
  1  2  1  0  0  0  0
  2  3  4  0  0  0  0
  2 21  4  0  0  0  0
  3  4  4  0  0  0  0
  4  5  1  0  0  0  0
  4 19  4  0  0  0  0
  5  6  1  0  0  0  0
  5 12  1  0  0  0  0
  6  7  1  0  0  0  0
  7  8  1  0  0  0  0
  7 11  2  0  0  0  0
  8  9  1  0  0  0  0
  9 10  1  0  0  0  0
 10 11  1  0  0  0  0
 12 13  4  0  0  0  0
 12 17  4  0  0  0  0
 13 14  4  0  0  0  0
 14 15  4  0  0  0  0
 15 16  4  0  0  0  0
 15 18  1  0  0  0  0
 16 17  4  0  0  0  0
 19 20  4  0  0  0  0
 20 21  4  0  0  0  0
M  END
>  <Name_Molregno>
PHENTOLAMINE

>  <5-HT1A>
5.67

>  <5-HT2A>
5.61

>  <Alpha-1A>
8.39

>  <Alpha-1B>
7.32

>  <Alpha-2A>
8.07

>  <Alpha-2B>
7.82

>  <Alpha-2C>
7.59

>  <DOPAMINE D1>
5

>  <DOPAMINE D2>
5

>  <HISTAMINE H1>
5.4

$$$$
Phenylethylamine
  Marvin  02231216192D 0   1.00000     0.00000     0

  9  9  0  0  0  0  0  0  0  0999 V2000
    1.5388    1.5986    0.0000 N   0  0  0  0  0  0  0  0  0
    1.5388    0.7736    0.0000 C   0  0  0  0  0  0  0  0  0
    2.2532    0.3611    0.0000 C   0  0  0  0  0  0  0  0  0
    2.2532   -0.4639    0.0000 C   0  0  0  0  0  0  0  0  0
    2.9677   -0.8764    0.0000 C   0  0  0  0  0  0  0  0  0
    2.9677   -1.7014    0.0000 C   0  0  0  0  0  0  0  0  0
    2.2532   -2.1139    0.0000 C   0  0  0  0  0  0  0  0  0
    1.5388   -1.7014    0.0000 C   0  0  0  0  0  0  0  0  0
    1.5388   -0.8764    0.0000 C   0  0  0  0  0  0  0  0  0
  1  2  1  0  0  0  0
  2  3  1  0  0  0  0
  3  4  1  0  0  0  0
  4  5  4  0  0  0  0
  4  9  4  0  0  0  0
  5  6  4  0  0  0  0
  6  7  4  0  0  0  0
  7  8  4  0  0  0  0
  8  9  4  0  0  0  0
M  END
>  <Name_Molregno>
Phenylethylamine

>  <5-HT2A>
5

$$$$
PIMOZIDE
  Marvin  02231216192D 0   1.00000     0.00000     0

 34 38  0  0  0  0  0  0  0  0999 V2000
    3.4878   -7.4849    0.0000 F   0  0  0  0  0  0  0  0  0
    3.7428   -6.7002    0.0000 C   0  0  0  0  0  0  0  0  0
    3.1908   -6.0871    0.0000 C   0  0  0  0  0  0  0  0  0
    3.4457   -5.3025    0.0000 C   0  0  0  0  0  0  0  0  0
    4.2527   -5.1310    0.0000 C   0  0  0  0  0  0  0  0  0
    4.8047   -5.7441    0.0000 C   0  0  0  0  0  0  0  0  0
    4.5498   -6.5287    0.0000 C   0  0  0  0  0  0  0  0  0
    4.5076   -4.3464    0.0000 C   0  0  0  0  0  0  0  0  0
    3.9556   -3.7333    0.0000 C   0  0  0  0  0  0  0  0  0
    4.2105   -2.9487    0.0000 C   0  0  0  0  0  0  0  0  0
    3.6585   -2.3356    0.0000 C   0  0  0  0  0  0  0  0  0
    3.9134   -1.5509    0.0000 N   0  0  0  0  0  0  0  0  0
    3.3614   -0.9378    0.0000 C   0  0  0  0  0  0  0  0  0
    3.6163   -0.1532    0.0000 C   0  0  0  0  0  0  0  0  0
    4.4233    0.0183    0.0000 C   0  0  0  0  0  0  0  0  0
    4.6782    0.8029    0.0000 N   0  0  0  0  0  0  0  0  0
    5.4629    1.0579    0.0000 C   0  0  0  0  0  0  0  0  0
    5.4629    1.8829    0.0000 C   0  0  0  0  0  0  0  0  0
    4.6782    2.1378    0.0000 N   0  0  0  0  0  0  0  0  0
    4.1933    1.4704    0.0000 C   0  0  0  0  0  0  0  0  0
    3.3683    1.4704    0.0000 O   0  0  0  0  0  0  0  0  0
    6.1773    2.2954    0.0000 C   0  0  0  0  0  0  0  0  0
    6.8918    1.8829    0.0000 C   0  0  0  0  0  0  0  0  0
    6.8918    1.0579    0.0000 C   0  0  0  0  0  0  0  0  0
    6.1773    0.6454    0.0000 C   0  0  0  0  0  0  0  0  0
    4.9753   -0.5948    0.0000 C   0  0  0  0  0  0  0  0  0
    4.7204   -1.3794    0.0000 C   0  0  0  0  0  0  0  0  0
    5.3146   -4.1748    0.0000 C   0  0  0  0  0  0  0  0  0
    5.5695   -3.3902    0.0000 C   0  0  0  0  0  0  0  0  0
    6.3765   -3.2187    0.0000 C   0  0  0  0  0  0  0  0  0
    6.9285   -3.8318    0.0000 C   0  0  0  0  0  0  0  0  0
    7.7355   -3.6603    0.0000 F   0  0  0  0  0  0  0  0  0
    6.6736   -4.6164    0.0000 C   0  0  0  0  0  0  0  0  0
    5.8666   -4.7879    0.0000 C   0  0  0  0  0  0  0  0  0
  1  2  1  0  0  0  0
  2  3  4  0  0  0  0
  2  7  4  0  0  0  0
  3  4  4  0  0  0  0
  4  5  4  0  0  0  0
  5  6  4  0  0  0  0
  5  8  1  0  0  0  0
  6  7  4  0  0  0  0
  8  9  1  0  0  0  0
  8 28  1  0  0  0  0
  9 10  1  0  0  0  0
 10 11  1  0  0  0  0
 11 12  1  0  0  0  0
 12 13  1  0  0  0  0
 12 27  1  0  0  0  0
 13 14  1  0  0  0  0
 14 15  1  0  0  0  0
 15 16  1  0  0  0  0
 15 26  1  0  0  0  0
 16 17  1  0  0  0  0
 16 20  1  0  0  0  0
 17 18  4  0  0  0  0
 17 25  4  0  0  0  0
 18 19  1  0  0  0  0
 18 22  4  0  0  0  0
 19 20  1  0  0  0  0
 20 21  2  0  0  0  0
 22 23  4  0  0  0  0
 23 24  4  0  0  0  0
 24 25  4  0  0  0  0
 26 27  1  0  0  0  0
 28 29  4  0  0  0  0
 28 34  4  0  0  0  0
 29 30  4  0  0  0  0
 30 31  4  0  0  0  0
 31 32  1  0  0  0  0
 31 33  4  0  0  0  0
 33 34  4  0  0  0  0
M  END
>  <Name_Molregno>
PIMOZIDE

>  <5-HT1A>
6.48

>  <5-HT1D>
5.51

>  <5-HT2A>
7.56

>  <5-HT2C>
5.92

>  <5-HT6>
7.15

>  <5-HT7>
9.3

>  <Alpha-1A>
6.7

>  <Alpha-2A>
5.8

>  <Alpha-2B>
6.09

>  <Alpha-2C>
6.42

>  <DOPAMINE D1>
5

>  <DOPAMINE D2>
8.86

>  <DOPAMINE D3>
9.05

>  <DOPAMINE D4>
8.74

>  <HISTAMINE H1>
6.88

>  <Muscarinic acetylcholine receptor M3>
5.71

$$$$
PIPAMPERONE
  Marvin  02231216192D 0   1.00000     0.00000     0

 27 29  0  0  0  0  0  0  0  0999 V2000
    0.0224    0.7508    0.0000 F   0  0  0  0  0  0  0  0  0
    0.7369    0.3383    0.0000 C   0  0  0  0  0  0  0  0  0
    1.4513    0.7508    0.0000 C   0  0  0  0  0  0  0  0  0
    2.1658    0.3383    0.0000 C   0  0  0  0  0  0  0  0  0
    2.1658   -0.4867    0.0000 C   0  0  0  0  0  0  0  0  0
    1.4513   -0.8992    0.0000 C   0  0  0  0  0  0  0  0  0
    0.7369   -0.4867    0.0000 C   0  0  0  0  0  0  0  0  0
    2.8803   -0.8992    0.0000 C   0  0  0  0  0  0  0  0  0
    2.8803   -1.7242    0.0000 O   0  0  0  0  0  0  0  0  0
    3.5947   -0.4867    0.0000 C   0  0  0  0  0  0  0  0  0
    4.3092   -0.8992    0.0000 C   0  0  0  0  0  0  0  0  0
    5.0237   -0.4867    0.0000 C   0  0  0  0  0  0  0  0  0
    5.7382   -0.8992    0.0000 N   0  0  0  0  0  0  0  0  0
    6.4526   -0.4867    0.0000 C   0  0  0  0  0  0  0  0  0
    7.1671   -0.8992    0.0000 C   0  0  0  0  0  0  0  0  0
    7.1671   -1.7242    0.0000 C   0  0  0  0  0  0  0  0  0
    7.9796   -1.5809    0.0000 N   0  0  0  0  0  0  0  0  0
    8.2617   -0.8057    0.0000 C   0  0  0  0  0  0  0  0  0
    9.0742   -0.6624    0.0000 C   0  0  0  0  0  0  0  0  0
    9.6045   -1.2944    0.0000 C   0  0  0  0  0  0  0  0  0
    9.3223   -2.0696    0.0000 C   0  0  0  0  0  0  0  0  0
    8.5099   -2.2129    0.0000 C   0  0  0  0  0  0  0  0  0
    6.4526   -2.1367    0.0000 C   0  0  0  0  0  0  0  0  0
    5.7382   -1.7242    0.0000 C   0  0  0  0  0  0  0  0  0
    7.4493   -2.4994    0.0000 C   0  0  0  0  0  0  0  0  0
    6.9190   -3.1314    0.0000 O   0  0  0  0  0  0  0  0  0
    8.2617   -2.6427    0.0000 N   0  0  0  0  0  0  0  0  0
  1  2  1  0  0  0  0
  2  3  4  0  0  0  0
  2  7  4  0  0  0  0
  3  4  4  0  0  0  0
  4  5  4  0  0  0  0
  5  6  4  0  0  0  0
  5  8  1  0  0  0  0
  6  7  4  0  0  0  0
  8  9  2  0  0  0  0
  8 10  1  0  0  0  0
 10 11  1  0  0  0  0
 11 12  1  0  0  0  0
 12 13  1  0  0  0  0
 13 14  1  0  0  0  0
 13 24  1  0  0  0  0
 14 15  1  0  0  0  0
 15 16  1  0  0  0  0
 16 17  1  0  0  0  0
 16 23  1  0  0  0  0
 16 25  1  0  0  0  0
 17 18  1  0  0  0  0
 17 22  1  0  0  0  0
 18 19  1  0  0  0  0
 19 20  1  0  0  0  0
 20 21  1  0  0  0  0
 21 22  1  0  0  0  0
 23 24  1  0  0  0  0
 25 26  2  0  0  0  0
 25 27  1  0  0  0  0
M  END
>  <Name_Molregno>
PIPAMPERONE

>  <5-HT1A>
5.56

>  <5-HT1B>
6.8

>  <5-HT1D>
6.19

>  <5-HT1E>
5.3

>  <5-HT2A>
8.21

>  <5-HT2C>
6.64

>  <Alpha-2A>
6.07

>  <Alpha-2B>
7.46

>  <Alpha-2C>
6.54

>  <Beta-1>
5.3

>  <Beta-2>
5.3

>  <DOPAMINE D2>
6.94

>  <DOPAMINE D3>
6.6

>  <DOPAMINE D4>
8.29

>  <HISTAMINE H1>
5.62

>  <Serotonin transporter>
6

$$$$
PIRENPERONE
  Marvin  02231216192D 0   1.00000     0.00000     0

 29 32  0  0  0  0  0  0  0  0999 V2000
    2.3505   -3.5857    0.0000 F   0  0  0  0  0  0  0  0  0
    2.3505   -2.7607    0.0000 C   0  0  0  0  0  0  0  0  0
    1.6360   -2.3482    0.0000 C   0  0  0  0  0  0  0  0  0
    1.6360   -1.5232    0.0000 C   0  0  0  0  0  0  0  0  0
    2.3505   -1.1107    0.0000 C   0  0  0  0  0  0  0  0  0
    3.0649   -1.5232    0.0000 C   0  0  0  0  0  0  0  0  0
    3.0649   -2.3482    0.0000 C   0  0  0  0  0  0  0  0  0
    2.3505   -0.2857    0.0000 C   0  0  0  0  0  0  0  0  0
    1.6360    0.1268    0.0000 O   0  0  0  0  0  0  0  0  0
    3.0649    0.1268    0.0000 C   0  0  0  0  0  0  0  0  0
    3.0649    0.9518    0.0000 C   0  0  0  0  0  0  0  0  0
    3.7794    1.3643    0.0000 C   0  0  0  0  0  0  0  0  0
    4.4939    0.9518    0.0000 N   0  0  0  0  0  0  0  0  0
    4.4939    0.1268    0.0000 C   0  0  0  0  0  0  0  0  0
    3.7794   -0.2857    0.0000 C   0  0  0  0  0  0  0  0  0
    5.2083    1.3643    0.0000 C   0  0  0  0  0  0  0  0  0
    5.9228    0.9518    0.0000 C   0  0  0  0  0  0  0  0  0
    6.6373    1.3643    0.0000 C   0  0  0  0  0  0  0  0  0
    7.3518    0.9518    0.0000 C   0  0  0  0  0  0  0  0  0
    7.3518    0.1268    0.0000 O   0  0  0  0  0  0  0  0  0
    8.0662    1.3643    0.0000 N   0  0  0  0  0  0  0  0  0
    8.0662    2.1893    0.0000 C   0  0  0  0  0  0  0  0  0
    7.3518    2.6018    0.0000 N   0  0  0  0  0  0  0  0  0
    6.6373    2.1893    0.0000 C   0  0  0  0  0  0  0  0  0
    5.9228    2.6018    0.0000 C   0  0  0  0  0  0  0  0  0
    8.7807    2.6018    0.0000 C   0  0  0  0  0  0  0  0  0
    9.4952    2.1893    0.0000 C   0  0  0  0  0  0  0  0  0
    9.4952    1.3643    0.0000 C   0  0  0  0  0  0  0  0  0
    8.7807    0.9518    0.0000 C   0  0  0  0  0  0  0  0  0
  1  2  1  0  0  0  0
  2  3  4  0  0  0  0
  2  7  4  0  0  0  0
  3  4  4  0  0  0  0
  4  5  4  0  0  0  0
  5  6  4  0  0  0  0
  5  8  1  0  0  0  0
  6  7  4  0  0  0  0
  8  9  2  0  0  0  0
  8 10  1  0  0  0  0
 10 11  1  0  0  0  0
 10 15  1  0  0  0  0
 11 12  1  0  0  0  0
 12 13  1  0  0  0  0
 13 14  1  0  0  0  0
 13 16  1  0  0  0  0
 14 15  1  0  0  0  0
 16 17  1  0  0  0  0
 17 18  1  0  0  0  0
 18 19  1  0  0  0  0
 18 24  2  0  0  0  0
 19 20  2  0  0  0  0
 19 21  1  0  0  0  0
 21 22  1  0  0  0  0
 21 29  1  0  0  0  0
 22 23  2  0  0  0  0
 22 26  1  0  0  0  0
 23 24  1  0  0  0  0
 24 25  1  0  0  0  0
 26 27  2  0  0  0  0
 27 28  1  0  0  0  0
 28 29  2  0  0  0  0
M  END
>  <Name_Molregno>
PIRENPERONE

>  <5-HT1A>
6.25

>  <5-HT2A>
8.97

>  <5-HT2C>
7.2

>  <5-HT7>
8.19

$$$$
Piribedil
  Marvin  02231216192D 0   1.00000     0.00000     0

 22 25  0  0  0  0  0  0  0  0999 V2000
   -6.9931    0.7446    0.0000 O   0  0  0  0  0  0  0  0  0
   -6.2084    0.4897    0.0000 C   0  0  0  0  0  0  0  0  0
   -5.4940    0.9022    0.0000 C   0  0  0  0  0  0  0  0  0
   -4.7795    0.4897    0.0000 C   0  0  0  0  0  0  0  0  0
   -4.7795   -0.3353    0.0000 C   0  0  0  0  0  0  0  0  0
   -5.4940   -0.7478    0.0000 C   0  0  0  0  0  0  0  0  0
   -6.2084   -0.3353    0.0000 C   0  0  0  0  0  0  0  0  0
   -6.9931   -0.5902    0.0000 O   0  0  0  0  0  0  0  0  0
   -7.4780    0.0772    0.0000 C   0  0  0  0  0  0  0  0  0
   -4.0650    0.9022    0.0000 C   0  0  0  0  0  0  0  0  0
   -3.3506    0.4897    0.0000 N   0  0  0  0  0  0  0  0  0
   -2.6361    0.9022    0.0000 C   0  0  0  0  0  0  0  0  0
   -1.9216    0.4897    0.0000 C   0  0  0  0  0  0  0  0  0
   -1.9216   -0.3353    0.0000 N   0  0  0  0  0  0  0  0  0
   -2.6361   -0.7478    0.0000 C   0  0  0  0  0  0  0  0  0
   -3.3506   -0.3353    0.0000 C   0  0  0  0  0  0  0  0  0
   -1.2071   -0.7478    0.0000 C   0  0  0  0  0  0  0  0  0
   -0.4927   -0.3353    0.0000 N   0  0  0  0  0  0  0  0  0
    0.2218   -0.7478    0.0000 C   0  0  0  0  0  0  0  0  0
    0.2218   -1.5728    0.0000 C   0  0  0  0  0  0  0  0  0
   -0.4927   -1.9853    0.0000 C   0  0  0  0  0  0  0  0  0
   -1.2071   -1.5728    0.0000 N   0  0  0  0  0  0  0  0  0
  1  2  1  0  0  0  0
  1  9  1  0  0  0  0
  2  3  4  0  0  0  0
  2  7  4  0  0  0  0
  3  4  4  0  0  0  0
  4  5  4  0  0  0  0
  4 10  1  0  0  0  0
  5  6  4  0  0  0  0
  6  7  4  0  0  0  0
  7  8  1  0  0  0  0
  8  9  1  0  0  0  0
 10 11  1  0  0  0  0
 11 12  1  0  0  0  0
 11 16  1  0  0  0  0
 12 13  1  0  0  0  0
 13 14  1  0  0  0  0
 14 15  1  0  0  0  0
 14 17  1  0  0  0  0
 15 16  1  0  0  0  0
 17 18  4  0  0  0  0
 17 22  4  0  0  0  0
 18 19  4  0  0  0  0
 19 20  4  0  0  0  0
 20 21  4  0  0  0  0
 21 22  4  0  0  0  0
M  END
>  <Name_Molregno>
Piribedil

>  <5-HT1A>
6.35

>  <5-HT1B>
5

>  <5-HT1D>
5

>  <5-HT2A>
5

>  <5-HT2C>
5

>  <Alpha-1A>
6.09

>  <Alpha-1B>
5.21

>  <Alpha-2A>
7.05

>  <Alpha-2B>
6.54

>  <Alpha-2C>
7.16

>  <Beta-1>
5

>  <Beta-2>
5

>  <DOPAMINE D1>
5

>  <DOPAMINE D2>
6.88

>  <DOPAMINE D3>
6.63

>  <DOPAMINE D4>
6.51

>  <DOPAMINE D5>
5

>  <Norepinephrine transporter>
5

$$$$
Piroxicam
  Marvin  02231216192D 0   1.00000     0.00000     0

 23 25  0  0  0  0  0  0  0  0999 V2000
    2.3267    1.3854    0.0000 S   0  0  0  0  0  0  0  0  0
    1.7964    2.0174    0.0000 O   0  0  0  0  0  0  0  0  0
    2.8570    2.0174    0.0000 O   0  0  0  0  0  0  0  0  0
    1.6123    0.9729    0.0000 N   0  0  0  0  0  0  0  0  0
    0.8978    1.3854    0.0000 C   0  0  0  0  0  0  0  0  0
    1.6123    0.1479    0.0000 C   0  0  0  0  0  0  0  0  0
    0.8978   -0.2646    0.0000 C   0  0  0  0  0  0  0  0  0
    0.1833    0.1479    0.0000 O   0  0  0  0  0  0  0  0  0
    0.8978   -1.0896    0.0000 N   0  0  0  0  0  0  0  0  0
    0.1833   -1.5021    0.0000 C   0  0  0  0  0  0  0  0  0
    0.1833   -2.3271    0.0000 N   0  0  0  0  0  0  0  0  0
   -0.5311   -2.7396    0.0000 C   0  0  0  0  0  0  0  0  0
   -1.2456   -2.3271    0.0000 C   0  0  0  0  0  0  0  0  0
   -1.2456   -1.5021    0.0000 C   0  0  0  0  0  0  0  0  0
   -0.5311   -1.0896    0.0000 C   0  0  0  0  0  0  0  0  0
    2.3267   -0.2646    0.0000 C   0  0  0  0  0  0  0  0  0
    2.3267   -1.0896    0.0000 O   0  0  0  0  0  0  0  0  0
    3.0412    0.1479    0.0000 C   0  0  0  0  0  0  0  0  0
    3.0412    0.9729    0.0000 C   0  0  0  0  0  0  0  0  0
    3.7557    1.3854    0.0000 C   0  0  0  0  0  0  0  0  0
    4.4702    0.9729    0.0000 C   0  0  0  0  0  0  0  0  0
    4.4702    0.1479    0.0000 C   0  0  0  0  0  0  0  0  0
    3.7557   -0.2646    0.0000 C   0  0  0  0  0  0  0  0  0
  1  2  2  0  0  0  0
  1  3  2  0  0  0  0
  1  4  1  0  0  0  0
  1 19  1  0  0  0  0
  4  5  1  0  0  0  0
  4  6  1  0  0  0  0
  6  7  2  0  0  0  0
  6 16  1  0  0  0  0
  7  8  1  0  0  0  0
  7  9  1  0  0  0  0
  9 10  1  0  0  0  0
 10 11  4  0  0  0  0
 10 15  4  0  0  0  0
 11 12  4  0  0  0  0
 12 13  4  0  0  0  0
 13 14  4  0  0  0  0
 14 15  4  0  0  0  0
 16 17  2  0  0  0  0
 16 18  1  0  0  0  0
 18 19  4  0  0  0  0
 18 23  4  0  0  0  0
 19 20  4  0  0  0  0
 20 21  4  0  0  0  0
 21 22  4  0  0  0  0
 22 23  4  0  0  0  0
M  END
>  <Name_Molregno>
Piroxicam

>  <5-HT1A>
5

>  <5-HT1B>
5

>  <5-HT1D>
5

>  <5-HT1E>
5

>  <5-HT2A>
5

>  <5-HT3>
5

>  <5-HT5>
5

>  <5-HT6>
5

>  <Alpha-1A>
5

>  <Alpha-1B>
5

>  <Alpha-2A>
5

>  <Alpha-2B>
5

>  <Alpha-2C>
5

>  <DOPAMINE D1>
5

>  <DOPAMINE D2>
5

>  <DOPAMINE D4>
5

>  <DOPAMINE D5>
5

>  <Dopamine transporter>
5

>  <HISTAMINE H1>
5

>  <HISTAMINE H2>
5

>  <Muscarinic acetylcholine receptor M2>
5

>  <Muscarinic acetylcholine receptor M5>
5

>  <Norepinephrine transporter>
5

>  <Serotonin transporter>
5

$$$$
PRAZOSIN
  Marvin  02231216192D 0   1.00000     0.00000     0

 28 31  0  0  0  0  0  0  0  0999 V2000
    1.9686   -3.1357    0.0000 O   0  0  0  0  0  0  0  0  0
    1.7137   -3.9204    0.0000 C   0  0  0  0  0  0  0  0  0
    0.8887   -3.9204    0.0000 C   0  0  0  0  0  0  0  0  0
    0.6338   -3.1357    0.0000 C   0  0  0  0  0  0  0  0  0
    1.3012   -2.6508    0.0000 C   0  0  0  0  0  0  0  0  0
    1.3012   -1.8258    0.0000 C   0  0  0  0  0  0  0  0  0
    0.5867   -1.4133    0.0000 O   0  0  0  0  0  0  0  0  0
    2.0157   -1.4133    0.0000 N   0  0  0  0  0  0  0  0  0
    2.0157   -0.5883    0.0000 C   0  0  0  0  0  0  0  0  0
    2.7302   -0.1758    0.0000 C   0  0  0  0  0  0  0  0  0
    3.4446   -0.5883    0.0000 N   0  0  0  0  0  0  0  0  0
    3.4446   -1.4133    0.0000 C   0  0  0  0  0  0  0  0  0
    2.7302   -1.8258    0.0000 C   0  0  0  0  0  0  0  0  0
    4.1591   -0.1758    0.0000 C   0  0  0  0  0  0  0  0  0
    4.1591    0.6492    0.0000 N   0  0  0  0  0  0  0  0  0
    4.8736    1.0617    0.0000 C   0  0  0  0  0  0  0  0  0
    4.8736    1.8867    0.0000 N   0  0  0  0  0  0  0  0  0
    5.5880    0.6492    0.0000 C   0  0  0  0  0  0  0  0  0
    6.3025    1.0617    0.0000 C   0  0  0  0  0  0  0  0  0
    7.0170    0.6492    0.0000 C   0  0  0  0  0  0  0  0  0
    7.7314    1.0617    0.0000 O   0  0  0  0  0  0  0  0  0
    7.7314    1.8867    0.0000 C   0  0  0  0  0  0  0  0  0
    7.0170   -0.1758    0.0000 C   0  0  0  0  0  0  0  0  0
    7.7314   -0.5883    0.0000 O   0  0  0  0  0  0  0  0  0
    7.7314   -1.4133    0.0000 C   0  0  0  0  0  0  0  0  0
    6.3025   -0.5883    0.0000 C   0  0  0  0  0  0  0  0  0
    5.5880   -0.1758    0.0000 C   0  0  0  0  0  0  0  0  0
    4.8736   -0.5883    0.0000 N   0  0  0  0  0  0  0  0  0
  1  2  4  0  0  0  0
  1  5  4  0  0  0  0
  2  3  4  0  0  0  0
  3  4  4  0  0  0  0
  4  5  4  0  0  0  0
  5  6  1  0  0  0  0
  6  7  2  0  0  0  0
  6  8  1  0  0  0  0
  8  9  1  0  0  0  0
  8 13  1  0  0  0  0
  9 10  1  0  0  0  0
 10 11  1  0  0  0  0
 11 12  1  0  0  0  0
 11 14  1  0  0  0  0
 12 13  1  0  0  0  0
 14 15  4  0  0  0  0
 14 28  4  0  0  0  0
 15 16  4  0  0  0  0
 16 17  1  0  0  0  0
 16 18  4  0  0  0  0
 18 19  4  0  0  0  0
 18 27  4  0  0  0  0
 19 20  4  0  0  0  0
 20 21  1  0  0  0  0
 20 23  4  0  0  0  0
 21 22  1  0  0  0  0
 23 24  1  0  0  0  0
 23 26  4  0  0  0  0
 24 25  1  0  0  0  0
 26 27  4  0  0  0  0
 27 28  4  0  0  0  0
M  END
>  <Name_Molregno>
PRAZOSIN

>  <5-HT1A>
5

>  <5-HT2A>
6.92

>  <5-HT3>
5

>  <5-HT7>
5

>  <Alpha-1A>
9.14

>  <Alpha-1B>
9.33

>  <Alpha-2A>
5.84

>  <Alpha-2B>
7.11

>  <Alpha-2C>
7.52

$$$$
PROCHLORPERAZINE
  Marvin  02231216192D 0   1.00000     0.00000     0

 25 28  0  0  0  0  0  0  0  0999 V2000
   -5.2156   -0.6691    0.0000 Cl  0  0  0  0  0  0  0  0  0
   -4.5011   -0.2566    0.0000 C   0  0  0  0  0  0  0  0  0
   -3.7866   -0.6691    0.0000 C   0  0  0  0  0  0  0  0  0
   -3.0722   -0.2566    0.0000 C   0  0  0  0  0  0  0  0  0
   -2.3577   -0.6691    0.0000 N   0  0  0  0  0  0  0  0  0
   -1.6432   -0.2566    0.0000 C   0  0  0  0  0  0  0  0  0
   -1.6432    0.5684    0.0000 C   0  0  0  0  0  0  0  0  0
   -2.3577    0.9809    0.0000 S   0  0  0  0  0  0  0  0  0
   -3.0722    0.5684    0.0000 C   0  0  0  0  0  0  0  0  0
   -3.7866    0.9809    0.0000 C   0  0  0  0  0  0  0  0  0
   -4.5011    0.5684    0.0000 C   0  0  0  0  0  0  0  0  0
   -0.9287    0.9809    0.0000 C   0  0  0  0  0  0  0  0  0
   -0.2143    0.5684    0.0000 C   0  0  0  0  0  0  0  0  0
   -0.2143   -0.2566    0.0000 C   0  0  0  0  0  0  0  0  0
   -0.9287   -0.6691    0.0000 C   0  0  0  0  0  0  0  0  0
   -2.3577   -1.4941    0.0000 C   0  0  0  0  0  0  0  0  0
   -3.0722   -1.9066    0.0000 C   0  0  0  0  0  0  0  0  0
   -3.0722   -2.7316    0.0000 C   0  0  0  0  0  0  0  0  0
   -3.7866   -3.1441    0.0000 N   0  0  0  0  0  0  0  0  0
   -3.7866   -3.9691    0.0000 C   0  0  0  0  0  0  0  0  0
   -4.5011   -4.3816    0.0000 C   0  0  0  0  0  0  0  0  0
   -5.2156   -3.9691    0.0000 N   0  0  0  0  0  0  0  0  0
   -5.2156   -3.1441    0.0000 C   0  0  0  0  0  0  0  0  0
   -4.5011   -2.7316    0.0000 C   0  0  0  0  0  0  0  0  0
   -5.9300   -4.3816    0.0000 C   0  0  0  0  0  0  0  0  0
  1  2  1  0  0  0  0
  2  3  4  0  0  0  0
  2 11  4  0  0  0  0
  3  4  4  0  0  0  0
  4  5  1  0  0  0  0
  4  9  4  0  0  0  0
  5  6  1  0  0  0  0
  5 16  1  0  0  0  0
  6  7  4  0  0  0  0
  6 15  4  0  0  0  0
  7  8  1  0  0  0  0
  7 12  4  0  0  0  0
  8  9  1  0  0  0  0
  9 10  4  0  0  0  0
 10 11  4  0  0  0  0
 12 13  4  0  0  0  0
 13 14  4  0  0  0  0
 14 15  4  0  0  0  0
 16 17  1  0  0  0  0
 17 18  1  0  0  0  0
 18 19  1  0  0  0  0
 19 20  1  0  0  0  0
 19 24  1  0  0  0  0
 20 21  1  0  0  0  0
 21 22  1  0  0  0  0
 22 23  1  0  0  0  0
 22 25  1  0  0  0  0
 23 24  1  0  0  0  0
M  END
>  <Name_Molregno>
PROCHLORPERAZINE

>  <5-HT1A>
5.23

>  <5-HT2A>
7.82

>  <5-HT2C>
6.91

>  <DOPAMINE D2>
8.76

>  <DOPAMINE D3>
8.61

>  <DOPAMINE D4>
7.3

>  <HISTAMINE H1>
7.72

$$$$
PROMAZINE
  Marvin  02231216192D 0   1.00000     0.00000     0

 20 22  0  0  0  0  0  0  0  0999 V2000
   -0.5198    0.6932    0.0000 S   0  0  0  0  0  0  0  0  0
    0.1947    0.2807    0.0000 C   0  0  0  0  0  0  0  0  0
    0.9091    0.6932    0.0000 C   0  0  0  0  0  0  0  0  0
    0.9091    1.5182    0.0000 N   0  0  0  0  0  0  0  0  0
    0.1947    1.9307    0.0000 C   0  0  0  0  0  0  0  0  0
   -0.5198    1.5182    0.0000 C   0  0  0  0  0  0  0  0  0
   -1.2343    1.9307    0.0000 C   0  0  0  0  0  0  0  0  0
   -1.2343    2.7557    0.0000 C   0  0  0  0  0  0  0  0  0
   -0.5198    3.1682    0.0000 C   0  0  0  0  0  0  0  0  0
    0.1947    2.7557    0.0000 C   0  0  0  0  0  0  0  0  0
    1.6236    1.9307    0.0000 C   0  0  0  0  0  0  0  0  0
    2.3381    1.5182    0.0000 C   0  0  0  0  0  0  0  0  0
    3.0525    1.9307    0.0000 C   0  0  0  0  0  0  0  0  0
    3.7670    1.5182    0.0000 N   0  0  0  0  0  0  0  0  0
    4.4815    1.9307    0.0000 C   0  0  0  0  0  0  0  0  0
    3.7670    0.6932    0.0000 C   0  0  0  0  0  0  0  0  0
    1.6236    0.2807    0.0000 C   0  0  0  0  0  0  0  0  0
    1.6236   -0.5443    0.0000 C   0  0  0  0  0  0  0  0  0
    0.9091   -0.9568    0.0000 C   0  0  0  0  0  0  0  0  0
    0.1947   -0.5443    0.0000 C   0  0  0  0  0  0  0  0  0
  1  2  1  0  0  0  0
  1  6  1  0  0  0  0
  2  3  4  0  0  0  0
  2 20  4  0  0  0  0
  3  4  1  0  0  0  0
  3 17  4  0  0  0  0
  4  5  1  0  0  0  0
  4 11  1  0  0  0  0
  5  6  4  0  0  0  0
  5 10  4  0  0  0  0
  6  7  4  0  0  0  0
  7  8  4  0  0  0  0
  8  9  4  0  0  0  0
  9 10  4  0  0  0  0
 11 12  1  0  0  0  0
 12 13  1  0  0  0  0
 13 14  1  0  0  0  0
 14 15  1  0  0  0  0
 14 16  1  0  0  0  0
 17 18  4  0  0  0  0
 18 19  4  0  0  0  0
 19 20  4  0  0  0  0
M  END
>  <Name_Molregno>
PROMAZINE

>  <5-HT1A>
5

>  <5-HT2A>
7.8

>  <DOPAMINE D2>
6.7

>  <DOPAMINE D3>
6.8

>  <HISTAMINE H1>
8.7

$$$$
Propanolol
  Marvin  02231216192D 0   1.00000     0.00000     0

 19 20  0  0  1  0  0  0  0  0999 V2000
   -0.0029    0.3857    0.0000 O   0  0  0  0  0  0  0  0  0
    0.7115   -0.0268    0.0000 C   0  0  0  0  0  0  0  0  0
    1.4260    0.3857    0.0000 C   0  0  0  0  0  0  0  0  0
    1.4260    1.2107    0.0000 O   0  0  0  0  0  0  0  0  0
    2.1405   -0.0268    0.0000 C   0  0  0  0  0  0  0  0  0
    2.8550    0.3857    0.0000 N   0  0  0  0  0  0  0  0  0
    3.5694   -0.0268    0.0000 C   0  0  0  0  0  0  0  0  0
    4.2839    0.3857    0.0000 C   0  0  0  0  0  0  0  0  0
    3.5694   -0.8518    0.0000 C   0  0  0  0  0  0  0  0  0
   -0.7174   -0.0268    0.0000 C   0  0  0  0  0  0  0  0  0
   -1.4319    0.3857    0.0000 C   0  0  0  0  0  0  0  0  0
   -2.1463   -0.0268    0.0000 C   0  0  0  0  0  0  0  0  0
   -2.1463   -0.8518    0.0000 C   0  0  0  0  0  0  0  0  0
   -1.4319   -1.2643    0.0000 C   0  0  0  0  0  0  0  0  0
   -0.7174   -0.8518    0.0000 C   0  0  0  0  0  0  0  0  0
   -2.8608    0.3857    0.0000 C   0  0  0  0  0  0  0  0  0
   -2.8608    1.2107    0.0000 C   0  0  0  0  0  0  0  0  0
   -2.1463    1.6232    0.0000 C   0  0  0  0  0  0  0  0  0
   -1.4319    1.2107    0.0000 C   0  0  0  0  0  0  0  0  0
  1  2  1  0  0  0  0
  1 10  1  0  0  0  0
  2  3  1  0  0  0  0
  3  4  1  0  0  0  0
  3  5  1  0  0  0  0
  5  6  1  0  0  0  0
  6  7  1  0  0  0  0
  7  8  1  0  0  0  0
  7  9  1  0  0  0  0
 10 11  4  0  0  0  0
 10 15  4  0  0  0  0
 11 12  4  0  0  0  0
 11 19  4  0  0  0  0
 12 13  4  0  0  0  0
 12 16  4  0  0  0  0
 13 14  4  0  0  0  0
 14 15  4  0  0  0  0
 16 17  4  0  0  0  0
 17 18  4  0  0  0  0
 18 19  4  0  0  0  0
M  END
>  <Name_Molregno>
Propanolol

>  <5-HT1A>
6.57

>  <5-HT1B>
5.87

>  <5-HT1D>
5.35

>  <5-HT2A>
5.3

>  <5-HT3>
5

>  <Beta-1>
9.34

>  <Beta-2>
9.68

>  <DOPAMINE D1>
5

>  <DOPAMINE D2>
5

>  <HISTAMINE H1>
5

$$$$
Prucalopride
  Marvin  02231216192D 0   1.00000     0.00000     0

 25 27  0  0  0  0  0  0  0  0999 V2000
   -0.3739   -1.3965    0.0000 Cl  0  0  0  0  0  0  0  0  0
    0.3406   -1.8090    0.0000 C   0  0  0  0  0  0  0  0  0
    1.0551   -1.3965    0.0000 C   0  0  0  0  0  0  0  0  0
    1.7696   -1.8090    0.0000 C   0  0  0  0  0  0  0  0  0
    1.7696   -2.6340    0.0000 C   0  0  0  0  0  0  0  0  0
    2.3827   -3.1861    0.0000 O   0  0  0  0  0  0  0  0  0
    2.0471   -3.9397    0.0000 C   0  0  0  0  0  0  0  0  0
    1.2266   -3.8535    0.0000 C   0  0  0  0  0  0  0  0  0
    1.0551   -3.0465    0.0000 C   0  0  0  0  0  0  0  0  0
    0.3406   -2.6340    0.0000 C   0  0  0  0  0  0  0  0  0
   -0.3739   -3.0465    0.0000 N   0  0  0  0  0  0  0  0  0
    2.4840   -1.3965    0.0000 C   0  0  0  0  0  0  0  0  0
    3.1985   -1.8090    0.0000 O   0  0  0  0  0  0  0  0  0
    2.4840   -0.5715    0.0000 N   0  0  0  0  0  0  0  0  0
    3.1985   -0.1590    0.0000 C   0  0  0  0  0  0  0  0  0
    3.1985    0.6660    0.0000 C   0  0  0  0  0  0  0  0  0
    3.9130    1.0785    0.0000 C   0  0  0  0  0  0  0  0  0
    4.6274    0.6660    0.0000 N   0  0  0  0  0  0  0  0  0
    4.6274   -0.1590    0.0000 C   0  0  0  0  0  0  0  0  0
    3.9130   -0.5715    0.0000 C   0  0  0  0  0  0  0  0  0
    5.3419    1.0785    0.0000 C   0  0  0  0  0  0  0  0  0
    6.0564    0.6660    0.0000 C   0  0  0  0  0  0  0  0  0
    6.7709    1.0785    0.0000 C   0  0  0  0  0  0  0  0  0
    7.4853    0.6660    0.0000 O   0  0  0  0  0  0  0  0  0
    8.1998    1.0785    0.0000 C   0  0  0  0  0  0  0  0  0
  1  2  1  0  0  0  0
  2  3  4  0  0  0  0
  2 10  4  0  0  0  0
  3  4  4  0  0  0  0
  4  5  4  0  0  0  0
  4 12  1  0  0  0  0
  5  6  1  0  0  0  0
  5  9  4  0  0  0  0
  6  7  1  0  0  0  0
  7  8  1  0  0  0  0
  8  9  1  0  0  0  0
  9 10  4  0  0  0  0
 10 11  1  0  0  0  0
 12 13  2  0  0  0  0
 12 14  1  0  0  0  0
 14 15  1  0  0  0  0
 15 16  1  0  0  0  0
 15 20  1  0  0  0  0
 16 17  1  0  0  0  0
 17 18  1  0  0  0  0
 18 19  1  0  0  0  0
 18 21  1  0  0  0  0
 19 20  1  0  0  0  0
 21 22  1  0  0  0  0
 22 23  1  0  0  0  0
 23 24  1  0  0  0  0
 24 25  1  0  0  0  0
M  END
>  <Name_Molregno>
Prucalopride

>  <5-HT1A>
5

>  <5-HT1B>
5

>  <5-HT1D>
5

>  <5-HT1E>
5

>  <5-HT2A>
5

>  <5-HT2C>
5

>  <5-HT5>
5

>  <5-HT6>
5

>  <5-HT7>
5

>  <Alpha-2A>
5

>  <Alpha-2B>
5

>  <Alpha-2C>
5

>  <Beta-1>
5

>  <Beta-2>
5

>  <DOPAMINE D2>
5

>  <DOPAMINE D3>
5

>  <DOPAMINE D4>
5.63

>  <HISTAMINE H1>
5

>  <Serotonin transporter>
5

$$$$
PSILOCIN
  Marvin  02231216192D 0   1.00000     0.00000     0

 15 16  0  0  0  0  0  0  0  0999 V2000
    1.2794   -2.2041    0.0000 O   0  0  0  0  0  0  0  0  0
    1.2794   -1.3791    0.0000 C   0  0  0  0  0  0  0  0  0
    0.5650   -0.9666    0.0000 C   0  0  0  0  0  0  0  0  0
    0.5650   -0.1416    0.0000 C   0  0  0  0  0  0  0  0  0
   -0.2197    0.1134    0.0000 N   0  0  0  0  0  0  0  0  0
   -0.7046   -0.5541    0.0000 C   0  0  0  0  0  0  0  0  0
   -0.2197   -1.2215    0.0000 C   0  0  0  0  0  0  0  0  0
   -0.4746   -2.0061    0.0000 C   0  0  0  0  0  0  0  0  0
   -1.2816   -2.1777    0.0000 C   0  0  0  0  0  0  0  0  0
   -1.5365   -2.9623    0.0000 N   0  0  0  0  0  0  0  0  0
   -2.3435   -3.1338    0.0000 C   0  0  0  0  0  0  0  0  0
   -0.9845   -3.5754    0.0000 C   0  0  0  0  0  0  0  0  0
    1.2794    0.2709    0.0000 C   0  0  0  0  0  0  0  0  0
    1.9939   -0.1416    0.0000 C   0  0  0  0  0  0  0  0  0
    1.9939   -0.9666    0.0000 C   0  0  0  0  0  0  0  0  0
  1  2  1  0  0  0  0
  2  3  4  0  0  0  0
  2 15  4  0  0  0  0
  3  4  4  0  0  0  0
  3  7  4  0  0  0  0
  4  5  4  0  0  0  0
  4 13  4  0  0  0  0
  5  6  4  0  0  0  0
  6  7  4  0  0  0  0
  7  8  1  0  0  0  0
  8  9  1  0  0  0  0
  9 10  1  0  0  0  0
 10 11  1  0  0  0  0
 10 12  1  0  0  0  0
 13 14  4  0  0  0  0
 14 15  4  0  0  0  0
M  STY  1   1 DAT
M  SAL   1  1   5
M  SDT   1 MRV_IMPLICIT_H                                        
M  SDD   1     0.0000    0.0000    DR    ALL  0       0  
M  SED   1 IMPL_H1
M  END
>  <Name_Molregno>
PSILOCIN

>  <5-HT1A>
6.78

>  <5-HT1B>
6.66

>  <5-HT1D>
7.44

>  <5-HT1E>
7.28

>  <5-HT2A>
6.97

>  <5-HT3>
5

>  <5-HT5>
7.08

>  <5-HT6>
7.24

>  <5-HT7>
8.46

>  <Alpha-1A>
5

>  <Alpha-1B>
5

>  <Alpha-2A>
5.86

>  <Alpha-2B>
5.72

>  <Alpha-2C>
5

>  <Beta-1>
5

>  <DOPAMINE D1>
5

>  <DOPAMINE D2>
5

>  <DOPAMINE D4>
5

>  <DOPAMINE D5>
5

>  <Dopamine transporter>
5

>  <HISTAMINE H1>
6.52

>  <HISTAMINE H2>
5

>  <HISTAMINE H4>
5

>  <Muscarinic acetylcholine receptor M2>
5

>  <Muscarinic acetylcholine receptor M5>
5

>  <Norepinephrine transporter>
5

>  <Serotonin transporter>
5.42

$$$$
PSILOCYBIN
  Marvin  02231216192D 0   1.00000     0.00000     0

 19 20  0  0  0  0  0  0  0  0999 V2000
    0.6946   -2.4480    0.0000 P   0  0  0  0  0  0  0  0  0
   -0.0199   -2.0355    0.0000 O   0  0  0  0  0  0  0  0  0
   -0.0199   -1.2105    0.0000 C   0  0  0  0  0  0  0  0  0
   -0.7343   -0.7980    0.0000 C   0  0  0  0  0  0  0  0  0
   -0.7343    0.0270    0.0000 C   0  0  0  0  0  0  0  0  0
   -1.5190    0.2819    0.0000 N   0  0  0  0  0  0  0  0  0
   -2.0039   -0.3855    0.0000 C   0  0  0  0  0  0  0  0  0
   -1.5190   -1.0530    0.0000 C   0  0  0  0  0  0  0  0  0
   -1.7739   -1.8376    0.0000 C   0  0  0  0  0  0  0  0  0
   -2.5809   -2.0091    0.0000 C   0  0  0  0  0  0  0  0  0
   -2.8358   -2.7937    0.0000 N   0  0  0  0  0  0  0  0  0
   -3.6428   -2.9653    0.0000 C   0  0  0  0  0  0  0  0  0
   -2.2838   -3.4068    0.0000 C   0  0  0  0  0  0  0  0  0
   -0.0199    0.4395    0.0000 C   0  0  0  0  0  0  0  0  0
    0.6946    0.0270    0.0000 C   0  0  0  0  0  0  0  0  0
    0.6946   -0.7980    0.0000 C   0  0  0  0  0  0  0  0  0
    1.4091   -2.8605    0.0000 O   0  0  0  0  0  0  0  0  0
    0.2821   -3.1625    0.0000 O   0  0  0  0  0  0  0  0  0
    1.1071   -1.7336    0.0000 O   0  0  0  0  0  0  0  0  0
  1  2  1  0  0  0  0
  1 17  2  0  0  0  0
  1 18  1  0  0  0  0
  1 19  1  0  0  0  0
  2  3  1  0  0  0  0
  3  4  4  0  0  0  0
  3 16  4  0  0  0  0
  4  5  4  0  0  0  0
  4  8  4  0  0  0  0
  5  6  4  0  0  0  0
  5 14  4  0  0  0  0
  6  7  4  0  0  0  0
  7  8  4  0  0  0  0
  8  9  1  0  0  0  0
  9 10  1  0  0  0  0
 10 11  1  0  0  0  0
 11 12  1  0  0  0  0
 11 13  1  0  0  0  0
 14 15  4  0  0  0  0
 15 16  4  0  0  0  0
M  STY  1   1 DAT
M  SAL   1  1   6
M  SDT   1 MRV_IMPLICIT_H                                        
M  SDD   1     0.0000    0.0000    DR    ALL  0       0  
M  SED   1 IMPL_H1
M  END
>  <Name_Molregno>
PSILOCYBIN

>  <5-HT1A>
5

>  <5-HT1B>
5

>  <5-HT1D>
5.67

>  <5-HT1E>
6.71

>  <5-HT2A>
5

>  <5-HT3>
5

>  <5-HT5>
5.21

>  <5-HT6>
6.38

>  <5-HT7>
6.22

>  <Alpha-1A>
5

>  <Alpha-1B>
5

>  <Alpha-2A>
5

>  <Alpha-2B>
5

>  <Alpha-2C>
5

>  <DOPAMINE D1>
5

>  <DOPAMINE D2>
5

>  <DOPAMINE D4>
5

>  <DOPAMINE D5>
5

>  <Dopamine transporter>
5

>  <HISTAMINE H1>
5

>  <HISTAMINE H2>
5

>  <HISTAMINE H4>
5

>  <Muscarinic acetylcholine receptor M2>
5

>  <Muscarinic acetylcholine receptor M5>
5

>  <Norepinephrine transporter>
5

>  <Serotonin transporter>
5

$$$$
QUETIAPINE
  Marvin  02231216192D 0   1.00000     0.00000     0

 27 30  0  0  0  0  0  0  0  0999 V2000
    0.4015    1.2563    0.0000 S   0  0  0  0  0  0  0  0  0
    1.2173    1.3793    0.0000 C   0  0  0  0  0  0  0  0  0
    1.8221    0.8181    0.0000 C   0  0  0  0  0  0  0  0  0
    2.6104    1.0613    0.0000 C   0  0  0  0  0  0  0  0  0
    2.7940    1.8656    0.0000 C   0  0  0  0  0  0  0  0  0
    2.1892    2.4268    0.0000 C   0  0  0  0  0  0  0  0  0
    1.4009    2.1836    0.0000 C   0  0  0  0  0  0  0  0  0
    1.7604   -0.0046    0.0000 C   0  0  0  0  0  0  0  0  0
    1.0788   -0.4693    0.0000 N   0  0  0  0  0  0  0  0  0
    0.2904   -0.2261    0.0000 C   0  0  0  0  0  0  0  0  0
   -0.0110    0.5418    0.0000 C   0  0  0  0  0  0  0  0  0
   -0.8268    0.6648    0.0000 C   0  0  0  0  0  0  0  0  0
   -1.3412    0.0198    0.0000 C   0  0  0  0  0  0  0  0  0
   -1.0398   -0.7482    0.0000 C   0  0  0  0  0  0  0  0  0
   -0.2240   -0.8711    0.0000 C   0  0  0  0  0  0  0  0  0
    2.4749   -0.4171    0.0000 N   0  0  0  0  0  0  0  0  0
    3.1893   -0.0046    0.0000 C   0  0  0  0  0  0  0  0  0
    3.9038   -0.4171    0.0000 C   0  0  0  0  0  0  0  0  0
    3.9038   -1.2421    0.0000 N   0  0  0  0  0  0  0  0  0
    3.1893   -1.6546    0.0000 C   0  0  0  0  0  0  0  0  0
    2.4749   -1.2421    0.0000 C   0  0  0  0  0  0  0  0  0
    4.6183   -1.6546    0.0000 C   0  0  0  0  0  0  0  0  0
    5.3328   -1.2421    0.0000 C   0  0  0  0  0  0  0  0  0
    6.0472   -1.6546    0.0000 O   0  0  0  0  0  0  0  0  0
    6.7617   -1.2421    0.0000 C   0  0  0  0  0  0  0  0  0
    7.4762   -1.6546    0.0000 C   0  0  0  0  0  0  0  0  0
    8.1906   -1.2421    0.0000 O   0  0  0  0  0  0  0  0  0
  1  2  1  0  0  0  0
  1 11  1  0  0  0  0
  2  3  4  0  0  0  0
  2  7  4  0  0  0  0
  3  4  4  0  0  0  0
  3  8  1  0  0  0  0
  4  5  4  0  0  0  0
  5  6  4  0  0  0  0
  6  7  4  0  0  0  0
  8  9  2  0  0  0  0
  8 16  1  0  0  0  0
  9 10  1  0  0  0  0
 10 11  4  0  0  0  0
 10 15  4  0  0  0  0
 11 12  4  0  0  0  0
 12 13  4  0  0  0  0
 13 14  4  0  0  0  0
 14 15  4  0  0  0  0
 16 17  1  0  0  0  0
 16 21  1  0  0  0  0
 17 18  1  0  0  0  0
 18 19  1  0  0  0  0
 19 20  1  0  0  0  0
 19 22  1  0  0  0  0
 20 21  1  0  0  0  0
 22 23  1  0  0  0  0
 23 24  1  0  0  0  0
 24 25  1  0  0  0  0
 25 26  1  0  0  0  0
 26 27  1  0  0  0  0
M  END
>  <Name_Molregno>
QUETIAPINE

>  <5-HT1A>
6.59

>  <5-HT1B>
5.83

>  <5-HT1D>
5.52

>  <5-HT1E>
5.76

>  <5-HT2A>
6.76

>  <5-HT2C>
5.82

>  <5-HT3>
5

>  <5-HT5>
5.51

>  <5-HT6>
6.35

>  <5-HT7>
6.74

>  <Alpha-1A>
7.66

>  <Alpha-1B>
7.41

>  <Alpha-2A>
5.51

>  <Alpha-2B>
6.44

>  <Alpha-2C>
7.18

>  <Beta-1>
5.15

>  <Beta-2>
5.15

>  <DOPAMINE D1>
5.95

>  <DOPAMINE D2>
6.51

>  <DOPAMINE D3>
6.59

>  <DOPAMINE D4>
5.77

>  <DOPAMINE D5>
5.79

>  <Dopamine transporter>
5

>  <HISTAMINE H1>
8.1

>  <HISTAMINE H2>
5

>  <HISTAMINE H4>
5

>  <Muscarinic acetylcholine receptor M1>
6.71

>  <Muscarinic acetylcholine receptor M2>
6.03

>  <Muscarinic acetylcholine receptor M3>
5.69

>  <Muscarinic acetylcholine receptor M4>
6.5

>  <Muscarinic acetylcholine receptor M5>
5.58

>  <Norepinephrine transporter>
5

>  <Serotonin transporter>
5.18

$$$$
QUIPAZINE
  Marvin  02231216192D 0   1.00000     0.00000     0

 16 18  0  0  0  0  0  0  0  0999 V2000
    0.2326    0.1177    0.0000 N   0  0  0  0  0  0  0  0  0
    0.9471    0.5302    0.0000 C   0  0  0  0  0  0  0  0  0
    0.9471    1.3552    0.0000 C   0  0  0  0  0  0  0  0  0
    0.2326    1.7677    0.0000 C   0  0  0  0  0  0  0  0  0
   -0.4818    1.3552    0.0000 C   0  0  0  0  0  0  0  0  0
   -0.4818    0.5302    0.0000 C   0  0  0  0  0  0  0  0  0
   -1.1963    0.1177    0.0000 N   0  0  0  0  0  0  0  0  0
   -1.1963   -0.7073    0.0000 C   0  0  0  0  0  0  0  0  0
   -1.9108   -1.1198    0.0000 C   0  0  0  0  0  0  0  0  0
   -2.6252   -0.7073    0.0000 N   0  0  0  0  0  0  0  0  0
   -2.6252    0.1177    0.0000 C   0  0  0  0  0  0  0  0  0
   -1.9108    0.5302    0.0000 C   0  0  0  0  0  0  0  0  0
    1.6616    1.7677    0.0000 C   0  0  0  0  0  0  0  0  0
    2.3761    1.3552    0.0000 C   0  0  0  0  0  0  0  0  0
    2.3761    0.5302    0.0000 C   0  0  0  0  0  0  0  0  0
    1.6616    0.1177    0.0000 C   0  0  0  0  0  0  0  0  0
  1  2  4  0  0  0  0
  1  6  4  0  0  0  0
  2  3  4  0  0  0  0
  2 16  4  0  0  0  0
  3  4  4  0  0  0  0
  3 13  4  0  0  0  0
  4  5  4  0  0  0  0
  5  6  4  0  0  0  0
  6  7  1  0  0  0  0
  7  8  1  0  0  0  0
  7 12  1  0  0  0  0
  8  9  1  0  0  0  0
  9 10  1  0  0  0  0
 10 11  1  0  0  0  0
 11 12  1  0  0  0  0
 13 14  4  0  0  0  0
 14 15  4  0  0  0  0
 15 16  4  0  0  0  0
M  END
>  <Name_Molregno>
QUIPAZINE

>  <5-HT1A>
5.39

>  <5-HT1B>
6

>  <5-HT1D>
5.8

>  <5-HT2A>
6.53

>  <5-HT2C>
6.87

>  <5-HT3>
8.42

>  <5-HT6>
5.44

>  <DOPAMINE D1>
5

>  <DOPAMINE D2>
5

$$$$
RACLOPRIDE
  Marvin  02231216192D 0   1.00000     0.00000     0

 22 23  0  0  1  0  0  0  0  0999 V2000
    0.4554    0.1464    0.0000 Cl  0  0  0  0  0  0  0  0  0
    1.1698    0.5589    0.0000 C   0  0  0  0  0  0  0  0  0
    1.1698    1.3839    0.0000 C   0  0  0  0  0  0  0  0  0
    1.8843    1.7964    0.0000 C   0  0  0  0  0  0  0  0  0
    1.8843    2.6214    0.0000 Cl  0  0  0  0  0  0  0  0  0
    2.5988    1.3839    0.0000 C   0  0  0  0  0  0  0  0  0
    3.3132    1.7964    0.0000 O   0  0  0  0  0  0  0  0  0
    2.5988    0.5589    0.0000 C   0  0  0  0  0  0  0  0  0
    3.3132    0.1464    0.0000 C   0  0  0  0  0  0  0  0  0
    4.0277    0.5589    0.0000 O   0  0  0  0  0  0  0  0  0
    3.3132   -0.6786    0.0000 N   0  0  0  0  0  0  0  0  0
    4.0277   -1.0911    0.0000 C   0  0  0  0  0  0  0  0  0
    4.0277   -1.9161    0.0000 C   0  0  0  0  0  0  0  0  0
    4.6952   -2.4010    0.0000 N   0  0  0  0  0  0  0  0  0
    4.4402   -3.1856    0.0000 C   0  0  0  0  0  0  0  0  0
    3.6152   -3.1856    0.0000 C   0  0  0  0  0  0  0  0  0
    3.3603   -2.4010    0.0000 C   0  0  0  0  0  0  0  0  0
    5.4798   -2.1461    0.0000 C   0  0  0  0  0  0  0  0  0
    5.6513   -1.3391    0.0000 C   0  0  0  0  0  0  0  0  0
    1.8843    0.1464    0.0000 C   0  0  0  0  0  0  0  0  0
    1.8843   -0.6786    0.0000 O   0  0  0  0  0  0  0  0  0
    2.5988   -1.0911    0.0000 C   0  0  0  0  0  0  0  0  0
  1  2  1  0  0  0  0
  2  3  4  0  0  0  0
  2 20  4  0  0  0  0
  3  4  4  0  0  0  0
  4  5  1  0  0  0  0
  4  6  4  0  0  0  0
  6  7  1  0  0  0  0
  6  8  4  0  0  0  0
  8  9  1  0  0  0  0
  8 20  4  0  0  0  0
  9 10  2  0  0  0  0
  9 11  1  0  0  0  0
 11 12  1  0  0  0  0
 12 13  1  0  0  0  0
 13 14  1  0  0  0  0
 13 17  1  0  0  0  0
 14 15  1  0  0  0  0
 14 18  1  0  0  0  0
 15 16  1  0  0  0  0
 16 17  1  0  0  0  0
 18 19  1  0  0  0  0
 20 21  1  0  0  0  0
 21 22  1  0  0  0  0
M  END
>  <Name_Molregno>
RACLOPRIDE

>  <5-HT2A>
5.31

>  <DOPAMINE D2>
8.72

>  <DOPAMINE D3>
8.62

>  <DOPAMINE D4>
5.73

$$$$
REMOXIPRIDE
  Marvin  02231216192D 0   1.00000     0.00000     0

 22 23  0  0  1  0  0  0  0  0999 V2000
    0.4227    0.2134    0.0000 Br  0  0  0  0  0  0  0  0  0
    1.1371    0.6259    0.0000 C   0  0  0  0  0  0  0  0  0
    1.1371    1.4509    0.0000 C   0  0  0  0  0  0  0  0  0
    1.8516    1.8634    0.0000 C   0  0  0  0  0  0  0  0  0
    2.5661    1.4509    0.0000 C   0  0  0  0  0  0  0  0  0
    3.2805    1.8634    0.0000 O   0  0  0  0  0  0  0  0  0
    3.9950    1.4509    0.0000 C   0  0  0  0  0  0  0  0  0
    2.5661    0.6259    0.0000 C   0  0  0  0  0  0  0  0  0
    3.2805    0.2134    0.0000 C   0  0  0  0  0  0  0  0  0
    3.9950    0.6259    0.0000 O   0  0  0  0  0  0  0  0  0
    3.2805   -0.6116    0.0000 N   0  0  0  0  0  0  0  0  0
    3.9950   -1.0241    0.0000 C   0  0  0  0  0  0  0  0  0
    3.9950   -1.8491    0.0000 C   0  0  0  0  0  0  0  0  0
    4.6625   -2.3340    0.0000 N   0  0  0  0  0  0  0  0  0
    4.4075   -3.1186    0.0000 C   0  0  0  0  0  0  0  0  0
    3.5825   -3.1186    0.0000 C   0  0  0  0  0  0  0  0  0
    3.3276   -2.3340    0.0000 C   0  0  0  0  0  0  0  0  0
    5.4471   -2.0790    0.0000 C   0  0  0  0  0  0  0  0  0
    5.6186   -1.2721    0.0000 C   0  0  0  0  0  0  0  0  0
    1.8516    0.2134    0.0000 C   0  0  0  0  0  0  0  0  0
    1.8516   -0.6116    0.0000 O   0  0  0  0  0  0  0  0  0
    2.5661   -1.0241    0.0000 C   0  0  0  0  0  0  0  0  0
  1  2  1  0  0  0  0
  2  3  4  0  0  0  0
  2 20  4  0  0  0  0
  3  4  4  0  0  0  0
  4  5  4  0  0  0  0
  5  6  1  0  0  0  0
  5  8  4  0  0  0  0
  6  7  1  0  0  0  0
  8  9  1  0  0  0  0
  8 20  4  0  0  0  0
  9 10  2  0  0  0  0
  9 11  1  0  0  0  0
 11 12  1  0  0  0  0
 12 13  1  0  0  0  0
 13 14  1  0  0  0  0
 13 17  1  0  0  0  0
 14 15  1  0  0  0  0
 14 18  1  0  0  0  0
 15 16  1  0  0  0  0
 16 17  1  0  0  0  0
 18 19  1  0  0  0  0
 20 21  1  0  0  0  0
 21 22  1  0  0  0  0
M  END
>  <Name_Molregno>
REMOXIPRIDE

>  <5-HT2A>
5.24

>  <DOPAMINE D2>
7.01

>  <DOPAMINE D3>
6.12

>  <DOPAMINE D4>
5.6

$$$$
RISPERIDONE
  Marvin  02231216192D 0   1.00000     0.00000     0

 30 34  0  0  0  0  0  0  0  0999 V2000
    1.8325   -2.9394    0.0000 F   0  0  0  0  0  0  0  0  0
    2.0875   -2.1548    0.0000 C   0  0  0  0  0  0  0  0  0
    1.5354   -1.5417    0.0000 C   0  0  0  0  0  0  0  0  0
    1.7904   -0.7571    0.0000 C   0  0  0  0  0  0  0  0  0
    1.3779   -0.0426    0.0000 O   0  0  0  0  0  0  0  0  0
    1.9299    0.5705    0.0000 N   0  0  0  0  0  0  0  0  0
    2.6836    0.2349    0.0000 C   0  0  0  0  0  0  0  0  0
    2.5974   -0.5856    0.0000 C   0  0  0  0  0  0  0  0  0
    3.1494   -1.1987    0.0000 C   0  0  0  0  0  0  0  0  0
    2.8945   -1.9833    0.0000 C   0  0  0  0  0  0  0  0  0
    3.3981    0.6474    0.0000 C   0  0  0  0  0  0  0  0  0
    3.3981    1.4724    0.0000 C   0  0  0  0  0  0  0  0  0
    4.1125    1.8849    0.0000 C   0  0  0  0  0  0  0  0  0
    4.8270    1.4724    0.0000 N   0  0  0  0  0  0  0  0  0
    4.8270    0.6474    0.0000 C   0  0  0  0  0  0  0  0  0
    4.1125    0.2349    0.0000 C   0  0  0  0  0  0  0  0  0
    5.5415    1.8849    0.0000 C   0  0  0  0  0  0  0  0  0
    6.2559    1.4724    0.0000 C   0  0  0  0  0  0  0  0  0
    6.9704    1.8849    0.0000 C   0  0  0  0  0  0  0  0  0
    7.6849    1.4724    0.0000 C   0  0  0  0  0  0  0  0  0
    7.6849    0.6474    0.0000 O   0  0  0  0  0  0  0  0  0
    8.3994    1.8849    0.0000 N   0  0  0  0  0  0  0  0  0
    8.3994    2.7099    0.0000 C   0  0  0  0  0  0  0  0  0
    7.6849    3.1224    0.0000 N   0  0  0  0  0  0  0  0  0
    6.9704    2.7099    0.0000 C   0  0  0  0  0  0  0  0  0
    6.2559    3.1224    0.0000 C   0  0  0  0  0  0  0  0  0
    9.1138    3.1224    0.0000 C   0  0  0  0  0  0  0  0  0
    9.8283    2.7099    0.0000 C   0  0  0  0  0  0  0  0  0
    9.8283    1.8849    0.0000 C   0  0  0  0  0  0  0  0  0
    9.1138    1.4724    0.0000 C   0  0  0  0  0  0  0  0  0
  1  2  1  0  0  0  0
  2  3  4  0  0  0  0
  2 10  4  0  0  0  0
  3  4  4  0  0  0  0
  4  5  4  0  0  0  0
  4  8  4  0  0  0  0
  5  6  4  0  0  0  0
  6  7  4  0  0  0  0
  7  8  4  0  0  0  0
  7 11  1  0  0  0  0
  8  9  4  0  0  0  0
  9 10  4  0  0  0  0
 11 12  1  0  0  0  0
 11 16  1  0  0  0  0
 12 13  1  0  0  0  0
 13 14  1  0  0  0  0
 14 15  1  0  0  0  0
 14 17  1  0  0  0  0
 15 16  1  0  0  0  0
 17 18  1  0  0  0  0
 18 19  1  0  0  0  0
 19 20  1  0  0  0  0
 19 25  2  0  0  0  0
 20 21  2  0  0  0  0
 20 22  1  0  0  0  0
 22 23  1  0  0  0  0
 22 30  1  0  0  0  0
 23 24  2  0  0  0  0
 23 27  1  0  0  0  0
 24 25  1  0  0  0  0
 25 26  1  0  0  0  0
 27 28  1  0  0  0  0
 28 29  1  0  0  0  0
 29 30  1  0  0  0  0
M  END
>  <Name_Molregno>
RISPERIDONE

>  <5-HT1A>
6.52

>  <5-HT1B>
7.66

>  <5-HT1D>
7.6

>  <5-HT1E>
5.44

>  <5-HT2A>
9.35

>  <5-HT2C>
7.74

>  <5-HT3>
5

>  <5-HT5>
6.69

>  <5-HT6>
5.7

>  <5-HT7>
8.4

>  <Alpha-1A>
8.38

>  <Alpha-1B>
8.05

>  <Alpha-2A>
7.46

>  <Alpha-2B>
7.34

>  <Alpha-2C>
8.56

>  <Beta-1>
5.15

>  <Beta-2>
5.15

>  <DOPAMINE D1>
6.61

>  <DOPAMINE D2>
8.58

>  <DOPAMINE D3>
8.17

>  <DOPAMINE D4>
8.17

>  <DOPAMINE D5>
7.03

>  <Dopamine transporter>
5

>  <HISTAMINE H1>
7.79

>  <HISTAMINE H2>
6.92

>  <HISTAMINE H4>
5

>  <Muscarinic acetylcholine receptor M1>
5.22

>  <Muscarinic acetylcholine receptor M2>
5.14

>  <Muscarinic acetylcholine receptor M3>
5

>  <Muscarinic acetylcholine receptor M4>
5.18

>  <Muscarinic acetylcholine receptor M5>
5

>  <Norepinephrine transporter>
5

>  <Serotonin transporter>
5.67

$$$$
RITANSERIN
  Marvin  02231216192D 0   1.00000     0.00000     0

 34 38  0  0  0  0  0  0  0  0999 V2000
   -9.6255    1.6331    0.0000 S   0  0  0  0  0  0  0  0  0
  -10.1104    0.9657    0.0000 C   0  0  0  0  0  0  0  0  0
   -9.6255    0.2982    0.0000 C   0  0  0  0  0  0  0  0  0
   -8.8409    0.5532    0.0000 N   0  0  0  0  0  0  0  0  0
   -8.8409    1.3782    0.0000 C   0  0  0  0  0  0  0  0  0
   -8.1264    1.7907    0.0000 N   0  0  0  0  0  0  0  0  0
   -7.4119    1.3782    0.0000 C   0  0  0  0  0  0  0  0  0
   -6.6974    1.7907    0.0000 C   0  0  0  0  0  0  0  0  0
   -7.4119    0.5532    0.0000 C   0  0  0  0  0  0  0  0  0
   -6.6974    0.1407    0.0000 C   0  0  0  0  0  0  0  0  0
   -5.9830    0.5532    0.0000 C   0  0  0  0  0  0  0  0  0
   -5.2685    0.1407    0.0000 N   0  0  0  0  0  0  0  0  0
   -4.5540    0.5532    0.0000 C   0  0  0  0  0  0  0  0  0
   -3.8396    0.1407    0.0000 C   0  0  0  0  0  0  0  0  0
   -3.8396   -0.6843    0.0000 C   0  0  0  0  0  0  0  0  0
   -4.5540   -1.0968    0.0000 C   0  0  0  0  0  0  0  0  0
   -5.2685   -0.6843    0.0000 C   0  0  0  0  0  0  0  0  0
   -3.1251   -1.0968    0.0000 C   0  0  0  0  0  0  0  0  0
   -3.1251   -1.9218    0.0000 C   0  0  0  0  0  0  0  0  0
   -2.4106   -2.3343    0.0000 C   0  0  0  0  0  0  0  0  0
   -2.4106   -3.1593    0.0000 C   0  0  0  0  0  0  0  0  0
   -3.1251   -3.5718    0.0000 C   0  0  0  0  0  0  0  0  0
   -3.1251   -4.3968    0.0000 F   0  0  0  0  0  0  0  0  0
   -3.8396   -3.1593    0.0000 C   0  0  0  0  0  0  0  0  0
   -3.8396   -2.3343    0.0000 C   0  0  0  0  0  0  0  0  0
   -2.4106   -0.6843    0.0000 C   0  0  0  0  0  0  0  0  0
   -2.4106    0.1407    0.0000 C   0  0  0  0  0  0  0  0  0
   -1.6961    0.5532    0.0000 C   0  0  0  0  0  0  0  0  0
   -0.9817    0.1407    0.0000 C   0  0  0  0  0  0  0  0  0
   -0.2672    0.5532    0.0000 F   0  0  0  0  0  0  0  0  0
   -0.9817   -0.6843    0.0000 C   0  0  0  0  0  0  0  0  0
   -1.6961   -1.0968    0.0000 C   0  0  0  0  0  0  0  0  0
   -8.1264    0.1407    0.0000 C   0  0  0  0  0  0  0  0  0
   -8.1264   -0.6843    0.0000 O   0  0  0  0  0  0  0  0  0
  1  2  1  0  0  0  0
  1  5  1  0  0  0  0
  2  3  2  0  0  0  0
  3  4  1  0  0  0  0
  4  5  1  0  0  0  0
  4 33  1  0  0  0  0
  5  6  2  0  0  0  0
  6  7  1  0  0  0  0
  7  8  1  0  0  0  0
  7  9  2  0  0  0  0
  9 10  1  0  0  0  0
  9 33  1  0  0  0  0
 10 11  1  0  0  0  0
 11 12  1  0  0  0  0
 12 13  1  0  0  0  0
 12 17  1  0  0  0  0
 13 14  1  0  0  0  0
 14 15  1  0  0  0  0
 15 16  1  0  0  0  0
 15 18  2  0  0  0  0
 16 17  1  0  0  0  0
 18 19  1  0  0  0  0
 18 26  1  0  0  0  0
 19 20  4  0  0  0  0
 19 25  4  0  0  0  0
 20 21  4  0  0  0  0
 21 22  4  0  0  0  0
 22 23  1  0  0  0  0
 22 24  4  0  0  0  0
 24 25  4  0  0  0  0
 26 27  4  0  0  0  0
 26 32  4  0  0  0  0
 27 28  4  0  0  0  0
 28 29  4  0  0  0  0
 29 30  1  0  0  0  0
 29 31  4  0  0  0  0
 31 32  4  0  0  0  0
 33 34  2  0  0  0  0
M  END
>  <Name_Molregno>
RITANSERIN

>  <5-HT1A>
5.53

>  <5-HT1B>
6.56

>  <5-HT1D>
6.29

>  <5-HT2A>
9.14

>  <5-HT2C>
9.04

>  <5-HT3>
5

>  <5-HT6>
7.54

>  <5-HT7>
7.34

>  <DOPAMINE D1>
6.03

>  <DOPAMINE D2>
7.54

>  <DOPAMINE D3>
7.62

>  <DOPAMINE D4>
7.52

$$$$
ROFECOXIB
  Marvin  02231216192D 0   1.00000     0.00000     0

 22 24  0  0  0  0  0  0  0  0999 V2000
   -1.7307    1.7900    0.0000 S   0  0  0  0  0  0  0  0  0
   -1.7307    2.6150    0.0000 O   0  0  0  0  0  0  0  0  0
   -2.5557    1.7900    0.0000 O   0  0  0  0  0  0  0  0  0
   -0.9057    1.7900    0.0000 C   0  0  0  0  0  0  0  0  0
   -1.7307    0.9650    0.0000 C   0  0  0  0  0  0  0  0  0
   -1.0163    0.5525    0.0000 C   0  0  0  0  0  0  0  0  0
   -1.0163   -0.2725    0.0000 C   0  0  0  0  0  0  0  0  0
   -1.7307   -0.6850    0.0000 C   0  0  0  0  0  0  0  0  0
   -2.4452   -0.2725    0.0000 C   0  0  0  0  0  0  0  0  0
   -2.4452    0.5525    0.0000 C   0  0  0  0  0  0  0  0  0
   -1.7307   -1.5100    0.0000 C   0  0  0  0  0  0  0  0  0
   -1.0633   -1.9950    0.0000 C   0  0  0  0  0  0  0  0  0
   -1.3182   -2.7796    0.0000 O   0  0  0  0  0  0  0  0  0
   -2.1432   -2.7796    0.0000 C   0  0  0  0  0  0  0  0  0
   -2.6282   -3.4470    0.0000 O   0  0  0  0  0  0  0  0  0
   -2.3982   -1.9950    0.0000 C   0  0  0  0  0  0  0  0  0
   -3.1828   -1.7400    0.0000 C   0  0  0  0  0  0  0  0  0
   -3.7959   -2.2920    0.0000 C   0  0  0  0  0  0  0  0  0
   -4.5805   -2.0371    0.0000 C   0  0  0  0  0  0  0  0  0
   -4.7520   -1.2301    0.0000 C   0  0  0  0  0  0  0  0  0
   -4.1390   -0.6781    0.0000 C   0  0  0  0  0  0  0  0  0
   -3.3543   -0.9330    0.0000 C   0  0  0  0  0  0  0  0  0
  1  2  2  0  0  0  0
  1  3  2  0  0  0  0
  1  4  1  0  0  0  0
  1  5  1  0  0  0  0
  5  6  4  0  0  0  0
  5 10  4  0  0  0  0
  6  7  4  0  0  0  0
  7  8  4  0  0  0  0
  8  9  4  0  0  0  0
  8 11  1  0  0  0  0
  9 10  4  0  0  0  0
 11 12  1  0  0  0  0
 11 16  2  0  0  0  0
 12 13  1  0  0  0  0
 13 14  1  0  0  0  0
 14 15  2  0  0  0  0
 14 16  1  0  0  0  0
 16 17  1  0  0  0  0
 17 18  4  0  0  0  0
 17 22  4  0  0  0  0
 18 19  4  0  0  0  0
 19 20  4  0  0  0  0
 20 21  4  0  0  0  0
 21 22  4  0  0  0  0
M  END
>  <Name_Molregno>
ROFECOXIB

>  <5-HT1A>
5

>  <5-HT1B>
5

>  <5-HT1D>
5

>  <5-HT1E>
5

>  <5-HT2A>
5

>  <5-HT3>
5

>  <5-HT6>
5

>  <5-HT7>
5

>  <Alpha-1A>
5

>  <Alpha-1B>
5

>  <Alpha-2A>
5

>  <Alpha-2B>
5

>  <Alpha-2C>
5

>  <DOPAMINE D1>
5

>  <DOPAMINE D2>
5

>  <DOPAMINE D5>
5

>  <Dopamine transporter>
5

>  <HISTAMINE H2>
5

>  <Muscarinic acetylcholine receptor M2>
5

>  <Muscarinic acetylcholine receptor M5>
5

>  <Norepinephrine transporter>
5

>  <Serotonin transporter>
5

$$$$
Ropinirole
  Marvin  02231216192D 0   1.00000     0.00000     0

 19 20  0  0  0  0  0  0  0  0999 V2000
    0.9619   -1.7047    0.0000 O   0  0  0  0  0  0  0  0  0
    1.7869   -1.7047    0.0000 C   0  0  0  0  0  0  0  0  0
    2.2718   -2.3721    0.0000 N   0  0  0  0  0  0  0  0  0
    3.0565   -2.1172    0.0000 C   0  0  0  0  0  0  0  0  0
    3.0565   -1.2922    0.0000 C   0  0  0  0  0  0  0  0  0
    2.2718   -1.0372    0.0000 C   0  0  0  0  0  0  0  0  0
    3.7709   -0.8797    0.0000 C   0  0  0  0  0  0  0  0  0
    4.4854   -1.2922    0.0000 C   0  0  0  0  0  0  0  0  0
    4.4854   -2.1172    0.0000 C   0  0  0  0  0  0  0  0  0
    3.7709   -2.5297    0.0000 C   0  0  0  0  0  0  0  0  0
    3.7709   -0.0547    0.0000 C   0  0  0  0  0  0  0  0  0
    3.0565    0.3578    0.0000 C   0  0  0  0  0  0  0  0  0
    3.0565    1.1828    0.0000 N   0  0  0  0  0  0  0  0  0
    2.3420    1.5953    0.0000 C   0  0  0  0  0  0  0  0  0
    2.3420    2.4203    0.0000 C   0  0  0  0  0  0  0  0  0
    1.6275    2.8328    0.0000 C   0  0  0  0  0  0  0  0  0
    3.7709    1.5953    0.0000 C   0  0  0  0  0  0  0  0  0
    3.7709    2.4203    0.0000 C   0  0  0  0  0  0  0  0  0
    4.4854    2.8328    0.0000 C   0  0  0  0  0  0  0  0  0
  1  2  2  0  0  0  0
  2  3  1  0  0  0  0
  2  6  1  0  0  0  0
  3  4  1  0  0  0  0
  4  5  4  0  0  0  0
  4 10  4  0  0  0  0
  5  6  1  0  0  0  0
  5  7  4  0  0  0  0
  7  8  4  0  0  0  0
  7 11  1  0  0  0  0
  8  9  4  0  0  0  0
  9 10  4  0  0  0  0
 11 12  1  0  0  0  0
 12 13  1  0  0  0  0
 13 14  1  0  0  0  0
 13 17  1  0  0  0  0
 14 15  1  0  0  0  0
 15 16  1  0  0  0  0
 17 18  1  0  0  0  0
 18 19  1  0  0  0  0
M  END
>  <Name_Molregno>
Ropinirole

>  <5-HT1A>
6.28

>  <5-HT1B>
5

>  <5-HT1D>
5.86

>  <5-HT2A>
5

>  <5-HT2C>
5

>  <5-HT5>
5

>  <5-HT6>
5

>  <5-HT7>
5.82

>  <Alpha-1A>
5

>  <Alpha-1B>
5

>  <Alpha-2A>
5.73

>  <Alpha-2B>
6.12

>  <Alpha-2C>
5.92

>  <Beta-1>
5

>  <Beta-2>
5

>  <DOPAMINE D1>
5

>  <DOPAMINE D2>
6.45

>  <DOPAMINE D3>
7.5

>  <DOPAMINE D4>
6.07

>  <DOPAMINE D5>
5

$$$$
Roxindole
  Marvin  02231216192D 0   1.00000     0.00000     0

 26 29  0  0  0  0  0  0  0  0999 V2000
   -0.4898   -0.6830    0.0000 O   0  0  0  0  0  0  0  0  0
   -1.2043   -0.2705    0.0000 C   0  0  0  0  0  0  0  0  0
   -1.9188   -0.6830    0.0000 C   0  0  0  0  0  0  0  0  0
   -2.6332   -0.2705    0.0000 C   0  0  0  0  0  0  0  0  0
   -2.6332    0.5545    0.0000 C   0  0  0  0  0  0  0  0  0
   -3.4179    0.8095    0.0000 N   0  0  0  0  0  0  0  0  0
   -3.9028    0.1420    0.0000 C   0  0  0  0  0  0  0  0  0
   -3.4179   -0.5254    0.0000 C   0  0  0  0  0  0  0  0  0
   -3.6728   -1.3100    0.0000 C   0  0  0  0  0  0  0  0  0
   -3.1208   -1.9231    0.0000 C   0  0  0  0  0  0  0  0  0
   -3.3757   -2.7077    0.0000 C   0  0  0  0  0  0  0  0  0
   -2.8237   -3.3208    0.0000 C   0  0  0  0  0  0  0  0  0
   -3.0786   -4.1055    0.0000 N   0  0  0  0  0  0  0  0  0
   -2.5266   -4.7185    0.0000 C   0  0  0  0  0  0  0  0  0
   -2.7815   -5.5032    0.0000 C   0  0  0  0  0  0  0  0  0
   -3.5885   -5.6747    0.0000 C   0  0  0  0  0  0  0  0  0
   -4.1405   -5.0616    0.0000 C   0  0  0  0  0  0  0  0  0
   -3.8856   -4.2770    0.0000 C   0  0  0  0  0  0  0  0  0
   -3.8434   -6.4593    0.0000 C   0  0  0  0  0  0  0  0  0
   -3.2914   -7.0724    0.0000 C   0  0  0  0  0  0  0  0  0
   -3.5463   -7.8570    0.0000 C   0  0  0  0  0  0  0  0  0
   -4.3533   -8.0286    0.0000 C   0  0  0  0  0  0  0  0  0
   -4.9053   -7.4155    0.0000 C   0  0  0  0  0  0  0  0  0
   -4.6504   -6.6308    0.0000 C   0  0  0  0  0  0  0  0  0
   -1.9188    0.9670    0.0000 C   0  0  0  0  0  0  0  0  0
   -1.2043    0.5545    0.0000 C   0  0  0  0  0  0  0  0  0
  1  2  1  0  0  0  0
  2  3  4  0  0  0  0
  2 26  4  0  0  0  0
  3  4  4  0  0  0  0
  4  5  4  0  0  0  0
  4  8  4  0  0  0  0
  5  6  4  0  0  0  0
  5 25  4  0  0  0  0
  6  7  4  0  0  0  0
  7  8  4  0  0  0  0
  8  9  1  0  0  0  0
  9 10  1  0  0  0  0
 10 11  1  0  0  0  0
 11 12  1  0  0  0  0
 12 13  1  0  0  0  0
 13 14  1  0  0  0  0
 13 18  1  0  0  0  0
 14 15  1  0  0  0  0
 15 16  1  0  0  0  0
 16 17  2  0  0  0  0
 16 19  1  0  0  0  0
 17 18  1  0  0  0  0
 19 20  4  0  0  0  0
 19 24  4  0  0  0  0
 20 21  4  0  0  0  0
 21 22  4  0  0  0  0
 22 23  4  0  0  0  0
 23 24  4  0  0  0  0
 25 26  4  0  0  0  0
M  STY  1   1 DAT
M  SAL   1  1   6
M  SDT   1 MRV_IMPLICIT_H                                        
M  SDD   1     0.0000    0.0000    DR    ALL  0       0  
M  SED   1 IMPL_H1
M  END
>  <Name_Molregno>
Roxindole

>  <5-HT1A>
9.94

>  <5-HT1D>
7.2

>  <5-HT2A>
8.18

>  <5-HT2C>
6.51

>  <Alpha-1A>
8.59

>  <Alpha-1B>
8.55

>  <Alpha-2A>
8.21

>  <Alpha-2B>
8.34

>  <Alpha-2C>
8.75

>  <Beta-1>
5.57

>  <Beta-2>
6.03

>  <DOPAMINE D1>
6.33

>  <DOPAMINE D2>
8.45

>  <DOPAMINE D3>
8.93

>  <DOPAMINE D4>
8.23

>  <DOPAMINE D5>
6.72

$$$$
RS-127445
  Marvin  02231216192D 0   1.00000     0.00000     0

 21 23  0  0  0  0  0  0  0  0999 V2000
    2.3414   -2.7779    0.0000 F   0  0  0  0  0  0  0  0  0
    2.3414   -1.9529    0.0000 C   0  0  0  0  0  0  0  0  0
    3.0558   -1.5404    0.0000 C   0  0  0  0  0  0  0  0  0
    3.0558   -0.7154    0.0000 C   0  0  0  0  0  0  0  0  0
    3.7703   -0.3029    0.0000 C   0  0  0  0  0  0  0  0  0
    4.4848   -0.7154    0.0000 C   0  0  0  0  0  0  0  0  0
    4.4848   -1.5404    0.0000 C   0  0  0  0  0  0  0  0  0
    3.7703   -1.9529    0.0000 C   0  0  0  0  0  0  0  0  0
    2.3414   -0.3029    0.0000 C   0  0  0  0  0  0  0  0  0
    1.6269   -0.7154    0.0000 C   0  0  0  0  0  0  0  0  0
    1.6269   -1.5404    0.0000 C   0  0  0  0  0  0  0  0  0
    2.3414    0.5221    0.0000 C   0  0  0  0  0  0  0  0  0
    1.6269    0.9346    0.0000 N   0  0  0  0  0  0  0  0  0
    1.6269    1.7596    0.0000 C   0  0  0  0  0  0  0  0  0
    2.3414    2.1721    0.0000 N   0  0  0  0  0  0  0  0  0
    3.0558    1.7596    0.0000 C   0  0  0  0  0  0  0  0  0
    3.0558    0.9346    0.0000 C   0  0  0  0  0  0  0  0  0
    3.7703    2.1721    0.0000 C   0  0  0  0  0  0  0  0  0
    3.7703    2.9971    0.0000 C   0  0  0  0  0  0  0  0  0
    4.4848    1.7596    0.0000 C   0  0  0  0  0  0  0  0  0
    0.9124    2.1721    0.0000 N   0  0  0  0  0  0  0  0  0
  1  2  1  0  0  0  0
  2  3  4  0  0  0  0
  2 11  4  0  0  0  0
  3  4  4  0  0  0  0
  3  8  4  0  0  0  0
  4  5  4  0  0  0  0
  4  9  4  0  0  0  0
  5  6  4  0  0  0  0
  6  7  4  0  0  0  0
  7  8  4  0  0  0  0
  9 10  4  0  0  0  0
  9 12  1  0  0  0  0
 10 11  4  0  0  0  0
 12 13  4  0  0  0  0
 12 17  4  0  0  0  0
 13 14  4  0  0  0  0
 14 15  4  0  0  0  0
 14 21  1  0  0  0  0
 15 16  4  0  0  0  0
 16 17  4  0  0  0  0
 16 18  1  0  0  0  0
 18 19  1  0  0  0  0
 18 20  1  0  0  0  0
M  END
>  <Name_Molregno>
RS-127445

>  <5-HT2A>
6.17

>  <5-HT2C>
6.37

>  <5-HT3>
6

>  <5-HT5>
6

>  <5-HT6>
6

$$$$
RU24969
  Marvin  02231216192D 0   1.00000     0.00000     0

 17 19  0  0  0  0  0  0  0  0999 V2000
    0.3325   -1.0185    0.0000 O   0  0  0  0  0  0  0  0  0
    1.0469   -0.6060    0.0000 C   0  0  0  0  0  0  0  0  0
   -0.3820   -0.6060    0.0000 C   0  0  0  0  0  0  0  0  0
   -1.0965   -1.0185    0.0000 C   0  0  0  0  0  0  0  0  0
   -1.8109   -0.6060    0.0000 C   0  0  0  0  0  0  0  0  0
   -1.8109    0.2190    0.0000 C   0  0  0  0  0  0  0  0  0
   -2.5956    0.4739    0.0000 N   0  0  0  0  0  0  0  0  0
   -3.0805   -0.1935    0.0000 C   0  0  0  0  0  0  0  0  0
   -2.5956   -0.8609    0.0000 C   0  0  0  0  0  0  0  0  0
   -2.8505   -1.6456    0.0000 C   0  0  0  0  0  0  0  0  0
   -2.2985   -2.2586    0.0000 C   0  0  0  0  0  0  0  0  0
   -2.5534   -3.0433    0.0000 C   0  0  0  0  0  0  0  0  0
   -3.3604   -3.2148    0.0000 N   0  0  0  0  0  0  0  0  0
   -3.9124   -2.6017    0.0000 C   0  0  0  0  0  0  0  0  0
   -3.6575   -1.8171    0.0000 C   0  0  0  0  0  0  0  0  0
   -1.0965    0.6315    0.0000 C   0  0  0  0  0  0  0  0  0
   -0.3820    0.2190    0.0000 C   0  0  0  0  0  0  0  0  0
  1  2  1  0  0  0  0
  1  3  1  0  0  0  0
  3  4  4  0  0  0  0
  3 17  4  0  0  0  0
  4  5  4  0  0  0  0
  5  6  4  0  0  0  0
  5  9  4  0  0  0  0
  6  7  4  0  0  0  0
  6 16  4  0  0  0  0
  7  8  4  0  0  0  0
  8  9  4  0  0  0  0
  9 10  1  0  0  0  0
 10 11  1  0  0  0  0
 10 15  2  0  0  0  0
 11 12  1  0  0  0  0
 12 13  1  0  0  0  0
 13 14  1  0  0  0  0
 14 15  1  0  0  0  0
 16 17  4  0  0  0  0
M  STY  1   1 DAT
M  SAL   1  1   7
M  SDT   1 MRV_IMPLICIT_H                                        
M  SDD   1     0.0000    0.0000    DR    ALL  0       0  
M  SED   1 IMPL_H1
M  END
>  <Name_Molregno>
RU24969

>  <5-HT1A>
8.36

>  <5-HT1B>
7.91

>  <5-HT1D>
7.64

>  <5-HT2A>
6.39

>  <5-HT2C>
6.53

>  <5-HT6>
6.24

$$$$
SB204741
  Marvin  02231216192D 0   1.00000     0.00000     0

 20 22  0  0  0  0  0  0  0  0999 V2000
    4.4146    0.8808    0.0000 S   0  0  0  0  0  0  0  0  0
    5.2216    1.0523    0.0000 N   0  0  0  0  0  0  0  0  0
    5.6341    0.3378    0.0000 C   0  0  0  0  0  0  0  0  0
    5.0821   -0.2753    0.0000 C   0  0  0  0  0  0  0  0  0
    4.3284    0.0603    0.0000 C   0  0  0  0  0  0  0  0  0
    3.6139   -0.3522    0.0000 N   0  0  0  0  0  0  0  0  0
    2.8995    0.0603    0.0000 C   0  0  0  0  0  0  0  0  0
    2.8995    0.8853    0.0000 O   0  0  0  0  0  0  0  0  0
    2.1850   -0.3522    0.0000 N   0  0  0  0  0  0  0  0  0
    1.4705    0.0603    0.0000 C   0  0  0  0  0  0  0  0  0
    0.7560   -0.3522    0.0000 C   0  0  0  0  0  0  0  0  0
    0.0416    0.0603    0.0000 C   0  0  0  0  0  0  0  0  0
    0.0416    0.8853    0.0000 C   0  0  0  0  0  0  0  0  0
   -0.7431    1.1402    0.0000 N   0  0  0  0  0  0  0  0  0
   -1.2280    0.4728    0.0000 C   0  0  0  0  0  0  0  0  0
   -0.7431   -0.1946    0.0000 C   0  0  0  0  0  0  0  0  0
   -0.9980    1.9249    0.0000 C   0  0  0  0  0  0  0  0  0
    0.7560    1.2978    0.0000 C   0  0  0  0  0  0  0  0  0
    1.4705    0.8853    0.0000 C   0  0  0  0  0  0  0  0  0
    6.4546    0.2516    0.0000 C   0  0  0  0  0  0  0  0  0
  1  2  4  0  0  0  0
  1  5  4  0  0  0  0
  2  3  4  0  0  0  0
  3  4  4  0  0  0  0
  3 20  1  0  0  0  0
  4  5  4  0  0  0  0
  5  6  1  0  0  0  0
  6  7  1  0  0  0  0
  7  8  2  0  0  0  0
  7  9  1  0  0  0  0
  9 10  1  0  0  0  0
 10 11  4  0  0  0  0
 10 19  4  0  0  0  0
 11 12  4  0  0  0  0
 12 13  4  0  0  0  0
 12 16  4  0  0  0  0
 13 14  4  0  0  0  0
 13 18  4  0  0  0  0
 14 15  4  0  0  0  0
 14 17  1  0  0  0  0
 15 16  4  0  0  0  0
 18 19  4  0  0  0  0
M  END
>  <Name_Molregno>
SB204741

>  <5-HT1B>
5

>  <5-HT1D>
5

>  <5-HT1E>
5

>  <5-HT2A>
5.1

>  <5-HT2C>
5.73

>  <DOPAMINE D1>
5

>  <DOPAMINE D2>
5

>  <DOPAMINE D3>
5

$$$$
SERTINDOLE
  Marvin  02231216192D 0   1.00000     0.00000     0

 31 35  0  0  0  0  0  0  0  0999 V2000
    1.9546   -2.6271    0.0000 Cl  0  0  0  0  0  0  0  0  0
    1.2402   -2.2146    0.0000 C   0  0  0  0  0  0  0  0  0
    0.5257   -2.6271    0.0000 C   0  0  0  0  0  0  0  0  0
   -0.1888   -2.2146    0.0000 C   0  0  0  0  0  0  0  0  0
   -0.1888   -1.3896    0.0000 C   0  0  0  0  0  0  0  0  0
   -0.9734   -1.1347    0.0000 N   0  0  0  0  0  0  0  0  0
   -1.4583   -1.8021    0.0000 C   0  0  0  0  0  0  0  0  0
   -0.9734   -2.4695    0.0000 C   0  0  0  0  0  0  0  0  0
   -1.2283   -3.2542    0.0000 C   0  0  0  0  0  0  0  0  0
   -0.6763   -3.8672    0.0000 C   0  0  0  0  0  0  0  0  0
   -0.9312   -4.6519    0.0000 C   0  0  0  0  0  0  0  0  0
   -1.7382   -4.8234    0.0000 N   0  0  0  0  0  0  0  0  0
   -2.2902   -4.2103    0.0000 C   0  0  0  0  0  0  0  0  0
   -2.0353   -3.4257    0.0000 C   0  0  0  0  0  0  0  0  0
   -1.9931   -5.6080    0.0000 C   0  0  0  0  0  0  0  0  0
   -2.8001   -5.7795    0.0000 C   0  0  0  0  0  0  0  0  0
   -3.0551   -6.5642    0.0000 N   0  0  0  0  0  0  0  0  0
   -2.5701   -7.2316    0.0000 C   0  0  0  0  0  0  0  0  0
   -3.0551   -7.8990    0.0000 C   0  0  0  0  0  0  0  0  0
   -3.8397   -7.6441    0.0000 N   0  0  0  0  0  0  0  0  0
   -3.8397   -6.8191    0.0000 C   0  0  0  0  0  0  0  0  0
   -4.5071   -6.3342    0.0000 O   0  0  0  0  0  0  0  0  0
   -1.2283   -0.3500    0.0000 C   0  0  0  0  0  0  0  0  0
   -2.0353   -0.1785    0.0000 C   0  0  0  0  0  0  0  0  0
   -2.2902    0.6061    0.0000 C   0  0  0  0  0  0  0  0  0
   -1.7382    1.2192    0.0000 C   0  0  0  0  0  0  0  0  0
   -1.9931    2.0038    0.0000 F   0  0  0  0  0  0  0  0  0
   -0.9312    1.0477    0.0000 C   0  0  0  0  0  0  0  0  0
   -0.6763    0.2631    0.0000 C   0  0  0  0  0  0  0  0  0
    0.5257   -0.9771    0.0000 C   0  0  0  0  0  0  0  0  0
    1.2402   -1.3896    0.0000 C   0  0  0  0  0  0  0  0  0
  1  2  1  0  0  0  0
  2  3  4  0  0  0  0
  2 31  4  0  0  0  0
  3  4  4  0  0  0  0
  4  5  4  0  0  0  0
  4  8  4  0  0  0  0
  5  6  4  0  0  0  0
  5 30  4  0  0  0  0
  6  7  4  0  0  0  0
  6 23  1  0  0  0  0
  7  8  4  0  0  0  0
  8  9  1  0  0  0  0
  9 10  1  0  0  0  0
  9 14  1  0  0  0  0
 10 11  1  0  0  0  0
 11 12  1  0  0  0  0
 12 13  1  0  0  0  0
 12 15  1  0  0  0  0
 13 14  1  0  0  0  0
 15 16  1  0  0  0  0
 16 17  1  0  0  0  0
 17 18  1  0  0  0  0
 17 21  1  0  0  0  0
 18 19  1  0  0  0  0
 19 20  1  0  0  0  0
 20 21  1  0  0  0  0
 21 22  2  0  0  0  0
 23 24  4  0  0  0  0
 23 29  4  0  0  0  0
 24 25  4  0  0  0  0
 25 26  4  0  0  0  0
 26 27  1  0  0  0  0
 26 28  4  0  0  0  0
 28 29  4  0  0  0  0
 30 31  4  0  0  0  0
M  END
>  <Name_Molregno>
SERTINDOLE

>  <5-HT1A>
6.36

>  <5-HT1B>
7.22

>  <5-HT1D>
7.36

>  <5-HT1E>
6.37

>  <5-HT2A>
9.49

>  <5-HT2C>
8.64

>  <5-HT6>
8.27

>  <5-HT7>
7.55

>  <Alpha-1A>
8.74

>  <Alpha-2A>
6.19

>  <Alpha-2B>
6.35

>  <Alpha-2C>
6.35

>  <Beta-1>
5.3

>  <Beta-2>
5.3

>  <DOPAMINE D2>
8.54

>  <DOPAMINE D3>
8.35

>  <DOPAMINE D4>
8.2

>  <HISTAMINE H1>
6.76

>  <Muscarinic acetylcholine receptor M3>
5.57

>  <Serotonin transporter>
6

$$$$
sibutramine
  Marvin  02231216192D 0   1.00000     0.00000     0

 19 20  0  0  1  0  0  0  0  0999 V2000
    3.5005    2.2156    0.0000 Cl  0  0  0  0  0  0  0  0  0
    3.0880    1.5012    0.0000 C   0  0  0  0  0  0  0  0  0
    3.5005    0.7867    0.0000 C   0  0  0  0  0  0  0  0  0
    3.0880    0.0722    0.0000 C   0  0  0  0  0  0  0  0  0
    2.2630    0.0722    0.0000 C   0  0  0  0  0  0  0  0  0
    1.8505    0.7867    0.0000 C   0  0  0  0  0  0  0  0  0
    2.2630    1.5012    0.0000 C   0  0  0  0  0  0  0  0  0
    1.8505   -0.6423    0.0000 C   0  0  0  0  0  0  0  0  0
    1.4380   -1.3567    0.0000 C   0  0  0  0  0  0  0  0  0
    0.7235   -0.9442    0.0000 C   0  0  0  0  0  0  0  0  0
    1.1360   -0.2298    0.0000 C   0  0  0  0  0  0  0  0  0
    2.5650   -1.0548    0.0000 C   0  0  0  0  0  0  0  0  0
    2.5650   -1.8798    0.0000 N   0  0  0  0  0  0  0  0  0
    3.2794   -2.2923    0.0000 C   0  0  0  0  0  0  0  0  0
    1.8505   -2.2923    0.0000 C   0  0  0  0  0  0  0  0  0
    3.2794   -0.6423    0.0000 C   0  0  0  0  0  0  0  0  0
    3.9939   -1.0548    0.0000 C   0  0  0  0  0  0  0  0  0
    4.7084   -0.6423    0.0000 C   0  0  0  0  0  0  0  0  0
    3.9939   -1.8798    0.0000 C   0  0  0  0  0  0  0  0  0
  1  2  1  0  0  0  0
  2  3  4  0  0  0  0
  2  7  4  0  0  0  0
  3  4  4  0  0  0  0
  4  5  4  0  0  0  0
  5  6  4  0  0  0  0
  5  8  1  0  0  0  0
  6  7  4  0  0  0  0
  8  9  1  0  0  0  0
  8 11  1  0  0  0  0
  8 12  1  0  0  0  0
  9 10  1  0  0  0  0
 10 11  1  0  0  0  0
 12 13  1  0  0  0  0
 12 16  1  0  0  0  0
 13 14  1  0  0  0  0
 13 15  1  0  0  0  0
 16 17  1  0  0  0  0
 17 18  1  0  0  0  0
 17 19  1  0  0  0  0
M  END
>  <Name_Molregno>
sibutramine

>  <5-HT2A>
5

>  <5-HT2C>
5

$$$$
SPIPERONE
  Marvin  02231216192D 0   1.00000     0.00000     0

 29 32  0  0  0  0  0  0  0  0999 V2000
   10.5422    0.0060    0.0000 F   0  0  0  0  0  0  0  0  0
    9.7172    0.0060    0.0000 C   0  0  0  0  0  0  0  0  0
    9.3047   -0.7084    0.0000 C   0  0  0  0  0  0  0  0  0
    8.4797   -0.7084    0.0000 C   0  0  0  0  0  0  0  0  0
    8.0672    0.0060    0.0000 C   0  0  0  0  0  0  0  0  0
    8.4797    0.7205    0.0000 C   0  0  0  0  0  0  0  0  0
    9.3047    0.7205    0.0000 C   0  0  0  0  0  0  0  0  0
    7.2422    0.0060    0.0000 C   0  0  0  0  0  0  0  0  0
    6.8297    0.7205    0.0000 O   0  0  0  0  0  0  0  0  0
    6.8297   -0.7084    0.0000 C   0  0  0  0  0  0  0  0  0
    6.0047   -0.7084    0.0000 C   0  0  0  0  0  0  0  0  0
    5.5922   -1.4229    0.0000 C   0  0  0  0  0  0  0  0  0
    4.7672   -1.4229    0.0000 N   0  0  0  0  0  0  0  0  0
    4.3547   -2.1374    0.0000 C   0  0  0  0  0  0  0  0  0
    3.5297   -2.1374    0.0000 C   0  0  0  0  0  0  0  0  0
    3.1172   -1.4229    0.0000 C   0  0  0  0  0  0  0  0  0
    2.6323   -2.0903    0.0000 N   0  0  0  0  0  0  0  0  0
    1.8476   -1.8354    0.0000 C   0  0  0  0  0  0  0  0  0
    1.8476   -1.0104    0.0000 N   0  0  0  0  0  0  0  0  0
    2.6323   -0.7555    0.0000 C   0  0  0  0  0  0  0  0  0
    2.8872    0.0292    0.0000 O   0  0  0  0  0  0  0  0  0
    2.8872   -2.8750    0.0000 C   0  0  0  0  0  0  0  0  0
    3.6942   -3.0465    0.0000 C   0  0  0  0  0  0  0  0  0
    3.9491   -3.8311    0.0000 C   0  0  0  0  0  0  0  0  0
    3.3971   -4.4442    0.0000 C   0  0  0  0  0  0  0  0  0
    2.5901   -4.2727    0.0000 C   0  0  0  0  0  0  0  0  0
    2.3352   -3.4880    0.0000 C   0  0  0  0  0  0  0  0  0
    3.5297   -0.7084    0.0000 C   0  0  0  0  0  0  0  0  0
    4.3547   -0.7084    0.0000 C   0  0  0  0  0  0  0  0  0
  1  2  1  0  0  0  0
  2  3  4  0  0  0  0
  2  7  4  0  0  0  0
  3  4  4  0  0  0  0
  4  5  4  0  0  0  0
  5  6  4  0  0  0  0
  5  8  1  0  0  0  0
  6  7  4  0  0  0  0
  8  9  2  0  0  0  0
  8 10  1  0  0  0  0
 10 11  1  0  0  0  0
 11 12  1  0  0  0  0
 12 13  1  0  0  0  0
 13 14  1  0  0  0  0
 13 29  1  0  0  0  0
 14 15  1  0  0  0  0
 15 16  1  0  0  0  0
 16 17  1  0  0  0  0
 16 20  1  0  0  0  0
 16 28  1  0  0  0  0
 17 18  1  0  0  0  0
 17 22  1  0  0  0  0
 18 19  1  0  0  0  0
 19 20  1  0  0  0  0
 20 21  2  0  0  0  0
 22 23  4  0  0  0  0
 22 27  4  0  0  0  0
 23 24  4  0  0  0  0
 24 25  4  0  0  0  0
 25 26  4  0  0  0  0
 26 27  4  0  0  0  0
 28 29  1  0  0  0  0
M  END
>  <Name_Molregno>
SPIPERONE

>  <5-HT1A>
7

>  <5-HT1B>
5.5

>  <5-HT1D>
5.4

>  <5-HT1E>
5.3

>  <5-HT2A>
8.65

>  <5-HT2C>
6.12

>  <5-HT5>
4.2

>  <5-HT6>
5.8

>  <5-HT7>
7.17

>  <Alpha-1A>
7.9

>  <Alpha-1B>
8.51

>  <DOPAMINE D1>
6.42

>  <DOPAMINE D2>
10.02

>  <DOPAMINE D3>
9.55

>  <DOPAMINE D4>
9.31

>  <DOPAMINE D5>
5.35

>  <HISTAMINE H1>
6.4

$$$$
SR144528
  Marvin  02231216192D 0   1.00000     0.00000     0

 34 38  0  0  1  0  0  0  0  0999 V2000
   -3.4859   -7.8445    0.0000 Cl  0  0  0  0  0  0  0  0  0
   -3.3410   -7.0323    0.0000 C   0  0  0  0  0  0  0  0  0
   -3.9720   -6.5008    0.0000 C   0  0  0  0  0  0  0  0  0
   -3.8271   -5.6886    0.0000 C   0  0  0  0  0  0  0  0  0
   -3.0513   -5.4080    0.0000 C   0  0  0  0  0  0  0  0  0
   -2.4203   -5.9395    0.0000 C   0  0  0  0  0  0  0  0  0
   -2.5652   -6.7517    0.0000 C   0  0  0  0  0  0  0  0  0
   -1.9343   -7.2833    0.0000 C   0  0  0  0  0  0  0  0  0
   -2.9064   -4.5958    0.0000 C   0  0  0  0  0  0  0  0  0
   -3.4783   -4.0012    0.0000 N   0  0  0  0  0  0  0  0  0
   -3.0895   -3.2735    0.0000 N   0  0  0  0  0  0  0  0  0
   -2.2773   -3.4184    0.0000 C   0  0  0  0  0  0  0  0  0
   -2.1641   -4.2356    0.0000 C   0  0  0  0  0  0  0  0  0
   -1.6827   -2.8465    0.0000 C   0  0  0  0  0  0  0  0  0
   -1.8807   -2.0456    0.0000 O   0  0  0  0  0  0  0  0  0
   -0.8901   -3.0755    0.0000 N   0  0  0  0  0  0  0  0  0
   -0.2955   -2.5036    0.0000 C   0  0  0  0  0  0  0  0  0
    0.0698   -1.8431    0.0000 C   0  0  0  0  0  0  0  0  0
    0.7101   -1.3929    0.0000 C   0  0  0  0  0  0  0  0  0
    0.5501   -0.5775    0.0000 C   0  0  0  0  0  0  0  0  0
    0.4800   -2.1133    0.0000 C   0  0  0  0  0  0  0  0  0
    1.2105   -2.4836    0.0000 C   0  0  0  0  0  0  0  0  0
    1.5056   -1.8582    0.0000 C   0  0  0  0  0  0  0  0  0
    0.4788   -2.9383    0.0000 C   0  0  0  0  0  0  0  0  0
   -0.7153   -1.5897    0.0000 C   0  0  0  0  0  0  0  0  0
   -0.2665   -1.0898    0.0000 C   0  0  0  0  0  0  0  0  0
   -4.2955   -4.1144    0.0000 C   0  0  0  0  0  0  0  0  0
   -4.8021   -3.4633    0.0000 C   0  0  0  0  0  0  0  0  0
   -5.6193   -3.5764    0.0000 C   0  0  0  0  0  0  0  0  0
   -6.1259   -2.9253    0.0000 C   0  0  0  0  0  0  0  0  0
   -5.8153   -2.1610    0.0000 C   0  0  0  0  0  0  0  0  0
   -4.9981   -2.0478    0.0000 C   0  0  0  0  0  0  0  0  0
   -4.4915   -2.6989    0.0000 C   0  0  0  0  0  0  0  0  0
   -6.3219   -1.5099    0.0000 C   0  0  0  0  0  0  0  0  0
  1  2  1  0  0  0  0
  2  3  4  0  0  0  0
  2  7  4  0  0  0  0
  3  4  4  0  0  0  0
  4  5  4  0  0  0  0
  5  6  4  0  0  0  0
  5  9  1  0  0  0  0
  6  7  4  0  0  0  0
  7  8  1  0  0  0  0
  9 10  4  0  0  0  0
  9 13  4  0  0  0  0
 10 11  4  0  0  0  0
 10 27  1  0  0  0  0
 11 12  4  0  0  0  0
 12 13  4  0  0  0  0
 12 14  1  0  0  0  0
 14 15  2  0  0  0  0
 14 16  1  0  0  0  0
 16 17  1  0  0  0  0
 17 18  1  0  0  0  0
 17 21  1  0  0  0  0
 18 19  1  0  0  0  0
 18 25  1  0  0  0  0
 18 26  1  0  0  0  0
 19 20  1  0  0  0  0
 19 23  1  0  0  0  0
 20 21  1  0  0  0  0
 21 22  1  0  0  0  0
 21 24  1  0  0  0  0
 22 23  1  0  0  0  0
 27 28  1  0  0  0  0
 28 29  4  0  0  0  0
 28 33  4  0  0  0  0
 29 30  4  0  0  0  0
 30 31  4  0  0  0  0
 31 32  4  0  0  0  0
 31 34  1  0  0  0  0
 32 33  4  0  0  0  0
M  END
>  <Name_Molregno>
SR144528

>  <5-HT1A>
5

>  <5-HT1B>
5

>  <5-HT1D>
5

>  <5-HT2A>
5

>  <5-HT2C>
5

>  <5-HT3>
5

>  <Beta-1>
5

>  <Beta-2>
5

>  <DOPAMINE D1>
5

>  <DOPAMINE D2>
5

>  <DOPAMINE D3>
5

>  <DOPAMINE D4>
5

>  <HISTAMINE H1>
5

>  <HISTAMINE H2>
5

>  <HISTAMINE H3>
5

>  <Muscarinic acetylcholine receptor M1>
5

>  <Muscarinic acetylcholine receptor M2>
5

>  <Muscarinic acetylcholine receptor M4>
5

$$$$
SR46349B
  Marvin  02231216192D 0   1.00000     0.00000     0

 24 25  0  0  0  0  0  0  0  0999 V2000
   -0.7835    2.8630    0.0000 F   0  0  0  0  0  0  0  0  0
   -0.0691    3.2755    0.0000 C   0  0  0  0  0  0  0  0  0
   -0.0691    4.1005    0.0000 C   0  0  0  0  0  0  0  0  0
    0.6454    4.5130    0.0000 C   0  0  0  0  0  0  0  0  0
    1.3599    4.1005    0.0000 C   0  0  0  0  0  0  0  0  0
    1.3599    3.2755    0.0000 C   0  0  0  0  0  0  0  0  0
    0.6454    2.8630    0.0000 C   0  0  0  0  0  0  0  0  0
    0.6454    2.0380    0.0000 C   0  0  0  0  0  0  0  0  0
    1.3599    1.6255    0.0000 N   0  0  0  0  0  0  0  0  0
    2.0743    2.0380    0.0000 O   0  0  0  0  0  0  0  0  0
    2.7888    1.6255    0.0000 C   0  0  0  0  0  0  0  0  0
    3.5033    2.0380    0.0000 C   0  0  0  0  0  0  0  0  0
    4.2177    1.6255    0.0000 N   0  0  0  0  0  0  0  0  0
    4.9322    2.0380    0.0000 C   0  0  0  0  0  0  0  0  0
    4.2177    0.8005    0.0000 C   0  0  0  0  0  0  0  0  0
   -0.0691    1.6255    0.0000 C   0  0  0  0  0  0  0  0  0
   -0.0691    0.8005    0.0000 C   0  0  0  0  0  0  0  0  0
   -0.7835    0.3880    0.0000 C   0  0  0  0  0  0  0  0  0
   -0.7835   -0.4370    0.0000 C   0  0  0  0  0  0  0  0  0
   -1.4980   -0.8495    0.0000 C   0  0  0  0  0  0  0  0  0
   -2.2125   -0.4370    0.0000 C   0  0  0  0  0  0  0  0  0
   -2.9270   -0.8495    0.0000 O   0  0  0  0  0  0  0  0  0
   -2.2125    0.3880    0.0000 C   0  0  0  0  0  0  0  0  0
   -1.4980    0.8005    0.0000 C   0  0  0  0  0  0  0  0  0
  1  2  1  0  0  0  0
  2  3  4  0  0  0  0
  2  7  4  0  0  0  0
  3  4  4  0  0  0  0
  4  5  4  0  0  0  0
  5  6  4  0  0  0  0
  6  7  4  0  0  0  0
  7  8  1  0  0  0  0
  8  9  1  0  0  0  0
  8 16  2  0  0  0  0
  9 10  1  0  0  0  0
 10 11  1  0  0  0  0
 11 12  1  0  0  0  0
 12 13  1  0  0  0  0
 13 14  1  0  0  0  0
 13 15  1  0  0  0  0
 16 17  1  0  0  0  0
 17 18  2  0  0  0  0
 18 19  1  0  0  0  0
 18 24  1  0  0  0  0
 19 20  2  0  0  0  0
 20 21  1  0  0  0  0
 21 22  2  0  0  0  0
 21 23  1  0  0  0  0
 23 24  2  0  0  0  0
M  END
>  <Name_Molregno>
SR46349B

>  <5-HT1A>
5.6

>  <5-HT2A>
9

>  <5-HT2C>
8.09

>  <5-HT5>
5.76

>  <5-HT6>
5.41

>  <Alpha-2A>
6.14

>  <Alpha-2C>
5.67

>  <DOPAMINE D1>
5

>  <Dopamine transporter>
5.25

>  <Muscarinic acetylcholine receptor M1>
6.14

>  <Muscarinic acetylcholine receptor M2>
5

>  <Muscarinic acetylcholine receptor M3>
5.62

>  <Muscarinic acetylcholine receptor M4>
5.44

>  <Muscarinic acetylcholine receptor M5>
5.52

>  <Norepinephrine transporter>
6.13

$$$$
SUMATRIPTAN
  Marvin  02231216192D 0   1.00000     0.00000     0

 20 21  0  0  0  0  0  0  0  0999 V2000
   -0.2094    0.6280    0.0000 S   0  0  0  0  0  0  0  0  0
   -0.6219    1.3424    0.0000 O   0  0  0  0  0  0  0  0  0
    0.2031   -0.0865    0.0000 O   0  0  0  0  0  0  0  0  0
    0.5050    1.0405    0.0000 N   0  0  0  0  0  0  0  0  0
    1.2195    0.6280    0.0000 C   0  0  0  0  0  0  0  0  0
   -0.9239    0.2155    0.0000 C   0  0  0  0  0  0  0  0  0
   -1.6384    0.6280    0.0000 C   0  0  0  0  0  0  0  0  0
   -2.3529    0.2155    0.0000 C   0  0  0  0  0  0  0  0  0
   -3.0673    0.6280    0.0000 C   0  0  0  0  0  0  0  0  0
   -3.0673    1.4530    0.0000 C   0  0  0  0  0  0  0  0  0
   -3.8519    1.7079    0.0000 N   0  0  0  0  0  0  0  0  0
   -4.3369    1.0405    0.0000 C   0  0  0  0  0  0  0  0  0
   -3.8519    0.3730    0.0000 C   0  0  0  0  0  0  0  0  0
   -4.1069   -0.4116    0.0000 C   0  0  0  0  0  0  0  0  0
   -3.5549   -1.0247    0.0000 C   0  0  0  0  0  0  0  0  0
   -3.8098   -1.8093    0.0000 N   0  0  0  0  0  0  0  0  0
   -4.6168   -1.9808    0.0000 C   0  0  0  0  0  0  0  0  0
   -3.2578   -2.4224    0.0000 C   0  0  0  0  0  0  0  0  0
   -2.3529    1.8655    0.0000 C   0  0  0  0  0  0  0  0  0
   -1.6384    1.4530    0.0000 C   0  0  0  0  0  0  0  0  0
  1  2  2  0  0  0  0
  1  3  2  0  0  0  0
  1  4  1  0  0  0  0
  1  6  1  0  0  0  0
  4  5  1  0  0  0  0
  6  7  1  0  0  0  0
  7  8  4  0  0  0  0
  7 20  4  0  0  0  0
  8  9  4  0  0  0  0
  9 10  4  0  0  0  0
  9 13  4  0  0  0  0
 10 11  4  0  0  0  0
 10 19  4  0  0  0  0
 11 12  4  0  0  0  0
 12 13  4  0  0  0  0
 13 14  1  0  0  0  0
 14 15  1  0  0  0  0
 15 16  1  0  0  0  0
 16 17  1  0  0  0  0
 16 18  1  0  0  0  0
 19 20  4  0  0  0  0
M  STY  1   1 DAT
M  SAL   1  1  11
M  SDT   1 MRV_IMPLICIT_H                                        
M  SDD   1     0.0000    0.0000    DR    ALL  0       0  
M  SED   1 IMPL_H1
M  END
>  <Name_Molregno>
SUMATRIPTAN

>  <5-HT1A>
6.38

>  <5-HT1B>
7.95

>  <5-HT1D>
8.46

>  <5-HT1E>
5.63

>  <5-HT2A>
5

>  <5-HT2C>
5

>  <5-HT6>
5.3

>  <5-HT7>
6.01

$$$$
TERGURIDE
  Marvin  02231216192D 0   1.00000     0.00000     0

 25 28  0  0  1  0  0  0  0  0999 V2000
   -0.3965   -3.1617    0.0000 O   0  0  0  0  0  0  0  0  0
    0.3175   -3.5751    0.0000 C   0  0  0  0  0  0  0  0  0
    1.0325   -3.1634    0.0000 N   0  0  0  0  0  0  0  0  0
    1.0334   -2.3384    0.0000 C   0  0  0  0  0  0  0  0  0
    1.7484   -1.9268    0.0000 C   0  0  0  0  0  0  0  0  0
    1.7494   -1.1018    0.0000 C   0  0  0  0  0  0  0  0  0
    1.0354   -0.6884    0.0000 C   0  0  0  0  0  0  0  0  0
    0.3205   -1.1001    0.0000 N   0  0  0  0  0  0  0  0  0
    0.3195   -1.9251    0.0000 C   0  0  0  0  0  0  0  0  0
   -0.3935   -0.6867    0.0000 C   0  0  0  0  0  0  0  0  0
    1.0369    0.1357    0.0000 C   0  0  0  0  0  0  0  0  0
    1.7494    0.5482    0.0000 C   0  0  0  0  0  0  0  0  0
    2.4619    0.1357    0.0000 C   0  0  0  0  0  0  0  0  0
    2.4619   -0.6893    0.0000 C   0  0  0  0  0  0  0  0  0
    3.1798   -1.1018    0.0000 C   0  0  0  0  0  0  0  0  0
    3.8923   -0.6893    0.0000 C   0  0  0  0  0  0  0  0  0
    3.8923    0.1357    0.0000 C   0  0  0  0  0  0  0  0  0
    3.1798    0.5482    0.0000 C   0  0  0  0  0  0  0  0  0
    2.8744    1.4054    0.0000 N   0  0  0  0  0  0  0  0  0
    2.0494    1.4054    0.0000 C   0  0  0  0  0  0  0  0  0
    0.3165   -4.4001    0.0000 N   0  0  0  0  0  0  0  0  0
   -0.3985   -4.8117    0.0000 C   0  0  0  0  0  0  0  0  0
   -0.3994   -5.6367    0.0000 C   0  0  0  0  0  0  0  0  0
    1.0305   -4.8134    0.0000 C   0  0  0  0  0  0  0  0  0
    1.0295   -5.6384    0.0000 C   0  0  0  0  0  0  0  0  0
  1  2  2  0  0  0  0
  2  3  1  0  0  0  0
  2 21  1  0  0  0  0
  3  4  1  0  0  0  0
  4  5  1  0  0  0  0
  4  9  1  0  0  0  0
  5  6  1  0  0  0  0
  6  7  1  0  0  0  0
  6 14  1  0  0  0  0
  7  8  1  0  0  0  0
  7 11  1  0  0  0  0
  8  9  1  0  0  0  0
  8 10  1  0  0  0  0
 11 12  1  0  0  0  0
 12 13  4  0  0  0  0
 12 20  4  0  0  0  0
 13 14  4  0  0  0  0
 13 18  4  0  0  0  0
 14 15  4  0  0  0  0
 15 16  4  0  0  0  0
 16 17  4  0  0  0  0
 17 18  4  0  0  0  0
 18 19  4  0  0  0  0
 19 20  4  0  0  0  0
 21 22  1  0  0  0  0
 21 24  1  0  0  0  0
 22 23  1  0  0  0  0
 24 25  1  0  0  0  0
M  STY  1   1 DAT
M  SAL   1  1  19
M  SDT   1 MRV_IMPLICIT_H                                        
M  SDD   1     0.0000    0.0000    DR    ALL  0       0  
M  SED   1 IMPL_H1
M  END
>  <Name_Molregno>
TERGURIDE

>  <5-HT1A>
8.46

>  <5-HT1B>
6.59

>  <5-HT1D>
7.79

>  <5-HT2A>
8.32

>  <5-HT2C>
7.32

>  <Alpha-1A>
8.45

>  <Alpha-1B>
7.46

>  <Alpha-2A>
9.53

>  <Alpha-2B>
9.35

>  <Alpha-2C>
9.12

>  <Beta-1>
6.18

>  <Beta-2>
7.7

>  <DOPAMINE D1>
7.55

>  <DOPAMINE D2>
9.06

>  <DOPAMINE D3>
9

>  <DOPAMINE D4>
8.18

>  <DOPAMINE D5>
7.63

$$$$
TFMPP
  Marvin  02231216192D 0   1.00000     0.00000     0

 16 17  0  0  0  0  0  0  0  0999 V2000
    0.5830    1.6625    0.0000 F   0  0  0  0  0  0  0  0  0
    0.5830    0.8375    0.0000 C   0  0  0  0  0  0  0  0  0
   -0.2420    0.8375    0.0000 F   0  0  0  0  0  0  0  0  0
    1.4080    0.8375    0.0000 F   0  0  0  0  0  0  0  0  0
    0.5830    0.0125    0.0000 C   0  0  0  0  0  0  0  0  0
    1.2974   -0.4000    0.0000 C   0  0  0  0  0  0  0  0  0
    1.2974   -1.2250    0.0000 C   0  0  0  0  0  0  0  0  0
    2.0119   -1.6375    0.0000 N   0  0  0  0  0  0  0  0  0
    2.7264   -1.2250    0.0000 C   0  0  0  0  0  0  0  0  0
    3.4408   -1.6375    0.0000 C   0  0  0  0  0  0  0  0  0
    3.4408   -2.4625    0.0000 N   0  0  0  0  0  0  0  0  0
    2.7264   -2.8750    0.0000 C   0  0  0  0  0  0  0  0  0
    2.0119   -2.4625    0.0000 C   0  0  0  0  0  0  0  0  0
    0.5830   -1.6375    0.0000 C   0  0  0  0  0  0  0  0  0
   -0.1315   -1.2250    0.0000 C   0  0  0  0  0  0  0  0  0
   -0.1315   -0.4000    0.0000 C   0  0  0  0  0  0  0  0  0
  1  2  1  0  0  0  0
  2  3  1  0  0  0  0
  2  4  1  0  0  0  0
  2  5  1  0  0  0  0
  5  6  4  0  0  0  0
  5 16  4  0  0  0  0
  6  7  4  0  0  0  0
  7  8  1  0  0  0  0
  7 14  4  0  0  0  0
  8  9  1  0  0  0  0
  8 13  1  0  0  0  0
  9 10  1  0  0  0  0
 10 11  1  0  0  0  0
 11 12  1  0  0  0  0
 12 13  1  0  0  0  0
 14 15  4  0  0  0  0
 15 16  4  0  0  0  0
M  END
>  <Name_Molregno>
TFMPP

>  <5-HT1B>
7.17

>  <5-HT1D>
6.97

>  <5-HT1E>
5.55

>  <5-HT2A>
7.07

>  <5-HT2C>
7.49

>  <5-HT6>
6.37

$$$$
THIORIDAZINE
  Marvin  02231216192D 0   1.00000     0.00000     0

 25 28  0  0  1  0  0  0  0  0999 V2000
    1.0601   -0.3753    0.0000 S   0  0  0  0  0  0  0  0  0
    1.7746    0.0372    0.0000 C   0  0  0  0  0  0  0  0  0
    1.7746    0.8622    0.0000 C   0  0  0  0  0  0  0  0  0
    1.0601    1.2747    0.0000 N   0  0  0  0  0  0  0  0  0
    0.3456    0.8622    0.0000 C   0  0  0  0  0  0  0  0  0
    0.3456    0.0372    0.0000 C   0  0  0  0  0  0  0  0  0
   -0.3689   -0.3753    0.0000 C   0  0  0  0  0  0  0  0  0
   -1.0833    0.0372    0.0000 C   0  0  0  0  0  0  0  0  0
   -1.0833    0.8622    0.0000 C   0  0  0  0  0  0  0  0  0
   -0.3689    1.2747    0.0000 C   0  0  0  0  0  0  0  0  0
    1.0601    2.0997    0.0000 C   0  0  0  0  0  0  0  0  0
    0.3456    2.5122    0.0000 C   0  0  0  0  0  0  0  0  0
    0.3456    3.3372    0.0000 C   0  0  0  0  0  0  0  0  0
   -0.3689    3.7497    0.0000 N   0  0  0  0  0  0  0  0  0
   -0.3689    4.5747    0.0000 C   0  0  0  0  0  0  0  0  0
    0.3456    4.9872    0.0000 C   0  0  0  0  0  0  0  0  0
    1.0601    4.5747    0.0000 C   0  0  0  0  0  0  0  0  0
    1.0601    3.7497    0.0000 C   0  0  0  0  0  0  0  0  0
   -1.0833    3.3372    0.0000 C   0  0  0  0  0  0  0  0  0
    2.4890    1.2747    0.0000 C   0  0  0  0  0  0  0  0  0
    3.2035    0.8622    0.0000 C   0  0  0  0  0  0  0  0  0
    3.9180    1.2747    0.0000 S   0  0  0  0  0  0  0  0  0
    3.9180    2.0997    0.0000 C   0  0  0  0  0  0  0  0  0
    3.2035    0.0372    0.0000 C   0  0  0  0  0  0  0  0  0
    2.4890   -0.3753    0.0000 C   0  0  0  0  0  0  0  0  0
  1  2  1  0  0  0  0
  1  6  1  0  0  0  0
  2  3  4  0  0  0  0
  2 25  4  0  0  0  0
  3  4  1  0  0  0  0
  3 20  4  0  0  0  0
  4  5  1  0  0  0  0
  4 11  1  0  0  0  0
  5  6  4  0  0  0  0
  5 10  4  0  0  0  0
  6  7  4  0  0  0  0
  7  8  4  0  0  0  0
  8  9  4  0  0  0  0
  9 10  4  0  0  0  0
 11 12  1  0  0  0  0
 12 13  1  0  0  0  0
 13 14  1  0  0  0  0
 13 18  1  0  0  0  0
 14 15  1  0  0  0  0
 14 19  1  0  0  0  0
 15 16  1  0  0  0  0
 16 17  1  0  0  0  0
 17 18  1  0  0  0  0
 20 21  4  0  0  0  0
 21 22  1  0  0  0  0
 21 24  4  0  0  0  0
 22 23  1  0  0  0  0
 24 25  4  0  0  0  0
M  END
>  <Name_Molregno>
THIORIDAZINE

>  <5-HT1A>
6.85

>  <5-HT1B>
6.96

>  <5-HT1D>
6.24

>  <5-HT1E>
6.71

>  <5-HT2A>
7.95

>  <5-HT2C>
7.28

>  <5-HT3>
5

>  <5-HT5>
6.44

>  <5-HT6>
7.24

>  <5-HT7>
7.05

>  <Alpha-1A>
8.6

>  <Alpha-1B>
8.62

>  <Alpha-2A>
6.87

>  <Alpha-2B>
6.47

>  <Alpha-2C>
7.13

>  <Beta-1>
5

>  <Beta-2>
5

>  <DOPAMINE D1>
7.03

>  <DOPAMINE D2>
8.31

>  <DOPAMINE D3>
8.59

>  <DOPAMINE D4>
8.21

>  <DOPAMINE D5>
6.6

>  <Dopamine transporter>
5.77

>  <HISTAMINE H1>
7.79

>  <HISTAMINE H2>
6.87

>  <HISTAMINE H4>
5.62

>  <Muscarinic acetylcholine receptor M1>
8.21

>  <Muscarinic acetylcholine receptor M2>
7.26

>  <Muscarinic acetylcholine receptor M3>
7.6

>  <Muscarinic acetylcholine receptor M4>
7.38

>  <Muscarinic acetylcholine receptor M5>
7.9

>  <Norepinephrine transporter>
6.07

>  <Serotonin transporter>
5.9

$$$$
TIMOLOL
  Marvin  02231216192D 0   1.00000     0.00000     0

 21 22  0  0  1  0  0  0  0  0999 V2000
   -1.4944   -2.1602    0.0000 S   0  0  0  0  0  0  0  0  0
   -1.0819   -1.4458    0.0000 N   0  0  0  0  0  0  0  0  0
   -0.2749   -1.6173    0.0000 C   0  0  0  0  0  0  0  0  0
    0.3382   -1.0653    0.0000 N   0  0  0  0  0  0  0  0  0
    0.1666   -0.2583    0.0000 C   0  0  0  0  0  0  0  0  0
    0.7797    0.2937    0.0000 C   0  0  0  0  0  0  0  0  0
    1.5643    0.0388    0.0000 O   0  0  0  0  0  0  0  0  0
    1.7359   -0.7682    0.0000 C   0  0  0  0  0  0  0  0  0
    1.1228   -1.3202    0.0000 C   0  0  0  0  0  0  0  0  0
   -0.1887   -2.4378    0.0000 C   0  0  0  0  0  0  0  0  0
    0.5258   -2.8503    0.0000 O   0  0  0  0  0  0  0  0  0
    1.2402   -2.4378    0.0000 C   0  0  0  0  0  0  0  0  0
    1.9547   -2.8503    0.0000 C   0  0  0  0  0  0  0  0  0
    1.9547   -3.6753    0.0000 O   0  0  0  0  0  0  0  0  0
    2.6692   -2.4378    0.0000 C   0  0  0  0  0  0  0  0  0
    3.3837   -2.8503    0.0000 N   0  0  0  0  0  0  0  0  0
    4.0981   -2.4378    0.0000 C   0  0  0  0  0  0  0  0  0
    4.8126   -2.0253    0.0000 C   0  0  0  0  0  0  0  0  0
    4.5106   -3.1522    0.0000 C   0  0  0  0  0  0  0  0  0
    3.6856   -1.7233    0.0000 C   0  0  0  0  0  0  0  0  0
   -0.9424   -2.7733    0.0000 N   0  0  0  0  0  0  0  0  0
  1  2  4  0  0  0  0
  1 21  4  0  0  0  0
  2  3  4  0  0  0  0
  3  4  1  0  0  0  0
  3 10  4  0  0  0  0
  4  5  1  0  0  0  0
  4  9  1  0  0  0  0
  5  6  1  0  0  0  0
  6  7  1  0  0  0  0
  7  8  1  0  0  0  0
  8  9  1  0  0  0  0
 10 11  1  0  0  0  0
 10 21  4  0  0  0  0
 11 12  1  0  0  0  0
 12 13  1  0  0  0  0
 13 14  1  0  0  0  0
 13 15  1  0  0  0  0
 15 16  1  0  0  0  0
 16 17  1  0  0  0  0
 17 18  1  0  0  0  0
 17 19  1  0  0  0  0
 17 20  1  0  0  0  0
M  END
>  <Name_Molregno>
TIMOLOL

>  <5-HT2A>
5

$$$$
TMA
  Marvin  02231216192D 0   1.00000     0.00000     0

 16 16  0  0  1  0  0  0  0  0999 V2000
   -0.0795    0.8400    0.0000 O   0  0  0  0  0  0  0  0  0
   -0.0795    1.6650    0.0000 C   0  0  0  0  0  0  0  0  0
   -0.7940    0.4275    0.0000 C   0  0  0  0  0  0  0  0  0
   -0.7940   -0.3975    0.0000 C   0  0  0  0  0  0  0  0  0
   -0.0795   -0.8100    0.0000 O   0  0  0  0  0  0  0  0  0
   -0.0795   -1.6350    0.0000 C   0  0  0  0  0  0  0  0  0
   -1.5084   -0.8100    0.0000 C   0  0  0  0  0  0  0  0  0
   -2.2229   -0.3975    0.0000 C   0  0  0  0  0  0  0  0  0
   -2.2229    0.4275    0.0000 C   0  0  0  0  0  0  0  0  0
   -1.5084    0.8400    0.0000 C   0  0  0  0  0  0  0  0  0
   -1.5084    1.6650    0.0000 O   0  0  0  0  0  0  0  0  0
   -2.2229    2.0775    0.0000 C   0  0  0  0  0  0  0  0  0
   -2.9374   -0.8100    0.0000 C   0  0  0  0  0  0  0  0  0
   -3.6518   -0.3975    0.0000 C   0  0  0  0  0  0  0  0  0
   -4.3663   -0.8100    0.0000 N   0  0  0  0  0  0  0  0  0
   -3.6518    0.4275    0.0000 C   0  0  0  0  0  0  0  0  0
  1  2  1  0  0  0  0
  1  3  1  0  0  0  0
  3  4  4  0  0  0  0
  3 10  4  0  0  0  0
  4  5  1  0  0  0  0
  4  7  4  0  0  0  0
  5  6  1  0  0  0  0
  7  8  4  0  0  0  0
  8  9  4  0  0  0  0
  8 13  1  0  0  0  0
  9 10  4  0  0  0  0
 10 11  1  0  0  0  0
 11 12  1  0  0  0  0
 13 14  1  0  0  0  0
 14 15  1  0  0  0  0
 14 16  1  0  0  0  0
M  END
>  <Name_Molregno>
TMA

>  <5-HT2A>
7.24

>  <5-HT2C>
7.06

$$$$
TRAZODONE
  Marvin  02231216192D 0   1.00000     0.00000     0

 26 29  0  0  0  0  0  0  0  0999 V2000
    0.6158   -2.7707    0.0000 Cl  0  0  0  0  0  0  0  0  0
    1.4408   -2.7707    0.0000 C   0  0  0  0  0  0  0  0  0
    1.8533   -2.0563    0.0000 C   0  0  0  0  0  0  0  0  0
    2.6783   -2.0563    0.0000 C   0  0  0  0  0  0  0  0  0
    3.0908   -1.3418    0.0000 N   0  0  0  0  0  0  0  0  0
    2.6783   -0.6273    0.0000 C   0  0  0  0  0  0  0  0  0
    3.0908    0.0872    0.0000 C   0  0  0  0  0  0  0  0  0
    3.9158    0.0872    0.0000 N   0  0  0  0  0  0  0  0  0
    4.3283   -0.6273    0.0000 C   0  0  0  0  0  0  0  0  0
    3.9158   -1.3418    0.0000 C   0  0  0  0  0  0  0  0  0
    4.3283    0.8016    0.0000 C   0  0  0  0  0  0  0  0  0
    5.1533    0.8016    0.0000 C   0  0  0  0  0  0  0  0  0
    5.5658    1.5161    0.0000 C   0  0  0  0  0  0  0  0  0
    6.3908    1.5161    0.0000 N   0  0  0  0  0  0  0  0  0
    6.8757    0.8487    0.0000 N   0  0  0  0  0  0  0  0  0
    7.6604    1.1036    0.0000 C   0  0  0  0  0  0  0  0  0
    7.6604    1.9286    0.0000 N   0  0  0  0  0  0  0  0  0
    8.3748    2.3411    0.0000 C   0  0  0  0  0  0  0  0  0
    9.0893    1.9286    0.0000 C   0  0  0  0  0  0  0  0  0
    9.0893    1.1036    0.0000 C   0  0  0  0  0  0  0  0  0
    8.3748    0.6911    0.0000 C   0  0  0  0  0  0  0  0  0
    6.8757    2.1835    0.0000 C   0  0  0  0  0  0  0  0  0
    6.6208    2.9682    0.0000 O   0  0  0  0  0  0  0  0  0
    3.0908   -2.7707    0.0000 C   0  0  0  0  0  0  0  0  0
    2.6783   -3.4852    0.0000 C   0  0  0  0  0  0  0  0  0
    1.8533   -3.4852    0.0000 C   0  0  0  0  0  0  0  0  0
  1  2  1  0  0  0  0
  2  3  4  0  0  0  0
  2 26  4  0  0  0  0
  3  4  4  0  0  0  0
  4  5  1  0  0  0  0
  4 24  4  0  0  0  0
  5  6  1  0  0  0  0
  5 10  1  0  0  0  0
  6  7  1  0  0  0  0
  7  8  1  0  0  0  0
  8  9  1  0  0  0  0
  8 11  1  0  0  0  0
  9 10  1  0  0  0  0
 11 12  1  0  0  0  0
 12 13  1  0  0  0  0
 13 14  1  0  0  0  0
 14 15  1  0  0  0  0
 14 22  1  0  0  0  0
 15 16  2  0  0  0  0
 16 17  1  0  0  0  0
 16 21  1  0  0  0  0
 17 18  1  0  0  0  0
 17 22  1  0  0  0  0
 18 19  2  0  0  0  0
 19 20  1  0  0  0  0
 20 21  2  0  0  0  0
 22 23  2  0  0  0  0
 24 25  4  0  0  0  0
 25 26  4  0  0  0  0
M  END
>  <Name_Molregno>
TRAZODONE

>  <5-HT1A>
6.97

>  <5-HT1B>
5

>  <5-HT1D>
6.97

>  <5-HT1E>
5

>  <5-HT2A>
7.46

>  <5-HT2C>
6.65

>  <5-HT3>
5

>  <5-HT5>
5

>  <5-HT6>
5

>  <5-HT7>
5.75

>  <Alpha-1A>
6.82

>  <Alpha-2A>
6.14

>  <Alpha-2C>
6.81

>  <Beta-1>
5

>  <Beta-2>
5

>  <DOPAMINE D1>
5.43

>  <DOPAMINE D2>
5.42

>  <DOPAMINE D4>
6.15

>  <DOPAMINE D5>
5

>  <Dopamine transporter>
5.07

>  <HISTAMINE H1>
6.31

>  <HISTAMINE H2>
5.48

>  <HISTAMINE H4>
5

>  <Muscarinic acetylcholine receptor M1>
5

>  <Muscarinic acetylcholine receptor M2>
5

>  <Muscarinic acetylcholine receptor M3>
5

>  <Muscarinic acetylcholine receptor M4>
5

>  <Muscarinic acetylcholine receptor M5>
5

>  <Norepinephrine transporter>
5.02

>  <Serotonin transporter>
6.14

$$$$
TRIFLUOPERAZINE
  Marvin  02231216192D 0   1.00000     0.00000     0

 28 31  0  0  0  0  0  0  0  0999 V2000
   -1.0248   -3.8592    0.0000 S   0  0  0  0  0  0  0  0  0
   -0.3103   -3.4467    0.0000 C   0  0  0  0  0  0  0  0  0
   -0.3103   -2.6217    0.0000 C   0  0  0  0  0  0  0  0  0
   -1.0248   -2.2092    0.0000 N   0  0  0  0  0  0  0  0  0
   -1.7393   -2.6217    0.0000 C   0  0  0  0  0  0  0  0  0
   -1.7393   -3.4467    0.0000 C   0  0  0  0  0  0  0  0  0
   -2.4538   -3.8592    0.0000 C   0  0  0  0  0  0  0  0  0
   -3.1682   -3.4467    0.0000 C   0  0  0  0  0  0  0  0  0
   -3.1682   -2.6217    0.0000 C   0  0  0  0  0  0  0  0  0
   -2.4538   -2.2092    0.0000 C   0  0  0  0  0  0  0  0  0
   -1.0248   -1.3842    0.0000 C   0  0  0  0  0  0  0  0  0
   -1.7393   -0.9717    0.0000 C   0  0  0  0  0  0  0  0  0
   -1.7393   -0.1467    0.0000 C   0  0  0  0  0  0  0  0  0
   -2.4538    0.2658    0.0000 N   0  0  0  0  0  0  0  0  0
   -3.1682   -0.1467    0.0000 C   0  0  0  0  0  0  0  0  0
   -3.8827    0.2658    0.0000 C   0  0  0  0  0  0  0  0  0
   -3.8827    1.0908    0.0000 N   0  0  0  0  0  0  0  0  0
   -3.1682    1.5033    0.0000 C   0  0  0  0  0  0  0  0  0
   -2.4538    1.0908    0.0000 C   0  0  0  0  0  0  0  0  0
   -4.5972    1.5033    0.0000 C   0  0  0  0  0  0  0  0  0
    0.4041   -2.2092    0.0000 C   0  0  0  0  0  0  0  0  0
    1.1186   -2.6217    0.0000 C   0  0  0  0  0  0  0  0  0
    1.1186   -3.4467    0.0000 C   0  0  0  0  0  0  0  0  0
    0.4041   -3.8592    0.0000 C   0  0  0  0  0  0  0  0  0
    1.8331   -2.2092    0.0000 C   0  0  0  0  0  0  0  0  0
    2.5475   -1.7967    0.0000 F   0  0  0  0  0  0  0  0  0
    2.2456   -2.9236    0.0000 F   0  0  0  0  0  0  0  0  0
    1.4206   -1.4947    0.0000 F   0  0  0  0  0  0  0  0  0
  1  2  1  0  0  0  0
  1  6  1  0  0  0  0
  2  3  4  0  0  0  0
  2 24  4  0  0  0  0
  3  4  1  0  0  0  0
  3 21  4  0  0  0  0
  4  5  1  0  0  0  0
  4 11  1  0  0  0  0
  5  6  4  0  0  0  0
  5 10  4  0  0  0  0
  6  7  4  0  0  0  0
  7  8  4  0  0  0  0
  8  9  4  0  0  0  0
  9 10  4  0  0  0  0
 11 12  1  0  0  0  0
 12 13  1  0  0  0  0
 13 14  1  0  0  0  0
 14 15  1  0  0  0  0
 14 19  1  0  0  0  0
 15 16  1  0  0  0  0
 16 17  1  0  0  0  0
 17 18  1  0  0  0  0
 17 20  1  0  0  0  0
 18 19  1  0  0  0  0
 21 22  4  0  0  0  0
 22 23  4  0  0  0  0
 22 25  1  0  0  0  0
 23 24  4  0  0  0  0
 25 26  1  0  0  0  0
 25 27  1  0  0  0  0
 25 28  1  0  0  0  0
M  END
>  <Name_Molregno>
TRIFLUOPERAZINE

>  <5-HT1A>
6.02

>  <5-HT2A>
7.78

>  <5-HT2C>
6.42

>  <5-HT6>
6.85

>  <5-HT7>
6.54

>  <Alpha-1A>
7.62

>  <Alpha-2A>
6.18

>  <Alpha-2B>
6.79

>  <Alpha-2C>
6.41

>  <DOPAMINE D2>
8.75

>  <DOPAMINE D3>
9.22

>  <DOPAMINE D4>
7.24

>  <HISTAMINE H1>
7.2

>  <Muscarinic acetylcholine receptor M3>
6

$$$$
Trifluopromazine
  Marvin  02231216192D 0   1.00000     0.00000     0

 24 26  0  0  0  0  0  0  0  0999 V2000
   -1.9470   -0.4932    0.0000 S   0  0  0  0  0  0  0  0  0
   -1.9470   -1.3182    0.0000 C   0  0  0  0  0  0  0  0  0
   -1.2325   -1.7307    0.0000 C   0  0  0  0  0  0  0  0  0
   -0.5180   -1.3182    0.0000 N   0  0  0  0  0  0  0  0  0
   -0.5180   -0.4932    0.0000 C   0  0  0  0  0  0  0  0  0
   -1.2325   -0.0807    0.0000 C   0  0  0  0  0  0  0  0  0
   -1.2325    0.7443    0.0000 C   0  0  0  0  0  0  0  0  0
   -0.5180    1.1568    0.0000 C   0  0  0  0  0  0  0  0  0
    0.1965    0.7443    0.0000 C   0  0  0  0  0  0  0  0  0
    0.1965   -0.0807    0.0000 C   0  0  0  0  0  0  0  0  0
    0.1965   -1.7307    0.0000 C   0  0  0  0  0  0  0  0  0
    0.9109   -1.3182    0.0000 C   0  0  0  0  0  0  0  0  0
    1.6254   -1.7307    0.0000 C   0  0  0  0  0  0  0  0  0
    2.3399   -1.3182    0.0000 N   0  0  0  0  0  0  0  0  0
    3.0543   -1.7307    0.0000 C   0  0  0  0  0  0  0  0  0
    2.3399   -0.4932    0.0000 C   0  0  0  0  0  0  0  0  0
   -1.2325   -2.5557    0.0000 C   0  0  0  0  0  0  0  0  0
   -1.9470   -2.9682    0.0000 C   0  0  0  0  0  0  0  0  0
   -2.6614   -2.5557    0.0000 C   0  0  0  0  0  0  0  0  0
   -2.6614   -1.7307    0.0000 C   0  0  0  0  0  0  0  0  0
   -1.9470   -3.7932    0.0000 C   0  0  0  0  0  0  0  0  0
   -1.9470   -4.6182    0.0000 F   0  0  0  0  0  0  0  0  0
   -2.7720   -3.7932    0.0000 F   0  0  0  0  0  0  0  0  0
   -1.1220   -3.7932    0.0000 F   0  0  0  0  0  0  0  0  0
  1  2  1  0  0  0  0
  1  6  1  0  0  0  0
  2  3  4  0  0  0  0
  2 20  4  0  0  0  0
  3  4  1  0  0  0  0
  3 17  4  0  0  0  0
  4  5  1  0  0  0  0
  4 11  1  0  0  0  0
  5  6  4  0  0  0  0
  5 10  4  0  0  0  0
  6  7  4  0  0  0  0
  7  8  4  0  0  0  0
  8  9  4  0  0  0  0
  9 10  4  0  0  0  0
 11 12  1  0  0  0  0
 12 13  1  0  0  0  0
 13 14  1  0  0  0  0
 14 15  1  0  0  0  0
 14 16  1  0  0  0  0
 17 18  4  0  0  0  0
 18 19  4  0  0  0  0
 18 21  1  0  0  0  0
 19 20  4  0  0  0  0
 21 22  1  0  0  0  0
 21 23  1  0  0  0  0
 21 24  1  0  0  0  0
M  END
>  <Name_Molregno>
Trifluopromazine

>  <5-HT2A>
8.4

>  <DOPAMINE D2>
8.55

$$$$
TRYPTAMINE
  Marvin  02231216192D 0   1.00000     0.00000     0

 12 13  0  0  0  0  0  0  0  0999 V2000
    0.3098    0.2368    0.0000 N   0  0  0  0  0  0  0  0  0
   -0.1752   -0.4306    0.0000 C   0  0  0  0  0  0  0  0  0
    0.3098   -1.0981    0.0000 C   0  0  0  0  0  0  0  0  0
    1.0944   -0.8431    0.0000 C   0  0  0  0  0  0  0  0  0
    1.0944   -0.0181    0.0000 C   0  0  0  0  0  0  0  0  0
    1.8089    0.3944    0.0000 C   0  0  0  0  0  0  0  0  0
    2.5233   -0.0181    0.0000 C   0  0  0  0  0  0  0  0  0
    2.5233   -0.8431    0.0000 C   0  0  0  0  0  0  0  0  0
    1.8089   -1.2556    0.0000 C   0  0  0  0  0  0  0  0  0
    0.0548   -1.8827    0.0000 C   0  0  0  0  0  0  0  0  0
   -0.7522   -2.0542    0.0000 C   0  0  0  0  0  0  0  0  0
   -1.0071   -2.8389    0.0000 N   0  0  0  0  0  0  0  0  0
  1  2  4  0  0  0  0
  1  5  4  0  0  0  0
  2  3  4  0  0  0  0
  3  4  4  0  0  0  0
  3 10  1  0  0  0  0
  4  5  4  0  0  0  0
  4  9  4  0  0  0  0
  5  6  4  0  0  0  0
  6  7  4  0  0  0  0
  7  8  4  0  0  0  0
  8  9  4  0  0  0  0
 10 11  1  0  0  0  0
 11 12  1  0  0  0  0
M  STY  1   1 DAT
M  SAL   1  1   1
M  SDT   1 MRV_IMPLICIT_H                                        
M  SDD   1     0.0000    0.0000    DR    ALL  0       0  
M  SED   1 IMPL_H1
M  END
>  <Name_Molregno>
TRYPTAMINE

>  <5-HT1A>
6.98

>  <5-HT1B>
6.68

>  <5-HT1D>
7.02

>  <5-HT1E>
5.59

>  <5-HT2A>
6.1

>  <5-HT2C>
6.5

>  <5-HT6>
6.36

>  <5-HT7>
6.83

$$$$
VALDECOXIB
  Marvin  02231216192D 0   1.00000     0.00000     0

 22 24  0  0  0  0  0  0  0  0999 V2000
   -2.8104    3.0816    0.0000 S   0  0  0  0  0  0  0  0  0
   -2.8104    3.9066    0.0000 O   0  0  0  0  0  0  0  0  0
   -3.6354    3.0816    0.0000 O   0  0  0  0  0  0  0  0  0
   -1.9854    3.0816    0.0000 N   0  0  0  0  0  0  0  0  0
   -2.8104    2.2566    0.0000 C   0  0  0  0  0  0  0  0  0
   -2.0959    1.8441    0.0000 C   0  0  0  0  0  0  0  0  0
   -2.0959    1.0191    0.0000 C   0  0  0  0  0  0  0  0  0
   -2.8104    0.6066    0.0000 C   0  0  0  0  0  0  0  0  0
   -3.5249    1.0191    0.0000 C   0  0  0  0  0  0  0  0  0
   -3.5249    1.8441    0.0000 C   0  0  0  0  0  0  0  0  0
   -2.8104   -0.2184    0.0000 C   0  0  0  0  0  0  0  0  0
   -2.1430   -0.7033    0.0000 C   0  0  0  0  0  0  0  0  0
   -2.3979   -1.4879    0.0000 N   0  0  0  0  0  0  0  0  0
   -3.2229   -1.4879    0.0000 O   0  0  0  0  0  0  0  0  0
   -3.4778   -0.7033    0.0000 C   0  0  0  0  0  0  0  0  0
   -4.2625   -0.4483    0.0000 C   0  0  0  0  0  0  0  0  0
   -1.3583   -0.4483    0.0000 C   0  0  0  0  0  0  0  0  0
   -1.1868    0.3586    0.0000 C   0  0  0  0  0  0  0  0  0
   -0.4022    0.6136    0.0000 C   0  0  0  0  0  0  0  0  0
    0.2109    0.0615    0.0000 C   0  0  0  0  0  0  0  0  0
    0.0394   -0.7454    0.0000 C   0  0  0  0  0  0  0  0  0
   -0.7452   -1.0004    0.0000 C   0  0  0  0  0  0  0  0  0
  1  2  2  0  0  0  0
  1  3  2  0  0  0  0
  1  4  1  0  0  0  0
  1  5  1  0  0  0  0
  5  6  4  0  0  0  0
  5 10  4  0  0  0  0
  6  7  4  0  0  0  0
  7  8  4  0  0  0  0
  8  9  4  0  0  0  0
  8 11  1  0  0  0  0
  9 10  4  0  0  0  0
 11 12  4  0  0  0  0
 11 15  4  0  0  0  0
 12 13  4  0  0  0  0
 12 17  1  0  0  0  0
 13 14  4  0  0  0  0
 14 15  4  0  0  0  0
 15 16  1  0  0  0  0
 17 18  4  0  0  0  0
 17 22  4  0  0  0  0
 18 19  4  0  0  0  0
 19 20  4  0  0  0  0
 20 21  4  0  0  0  0
 21 22  4  0  0  0  0
M  END
>  <Name_Molregno>
VALDECOXIB

>  <5-HT1A>
5

>  <5-HT1B>
5

>  <5-HT1D>
5

>  <5-HT1E>
5

>  <5-HT2A>
5

>  <5-HT3>
5

>  <5-HT6>
5

>  <5-HT7>
5

>  <Alpha-1A>
5

>  <Alpha-1B>
5

>  <Alpha-2A>
5

>  <Alpha-2B>
5

>  <Alpha-2C>
5

>  <DOPAMINE D1>
5

>  <DOPAMINE D2>
5

>  <DOPAMINE D5>
5

>  <Dopamine transporter>
5

>  <HISTAMINE H1>
5

>  <HISTAMINE H2>
5

>  <Muscarinic acetylcholine receptor M2>
5

>  <Muscarinic acetylcholine receptor M5>
5

>  <Serotonin transporter>
5

$$$$
valeryl-salicylate
  Marvin  02231216192D 0   1.00000     0.00000     0

 16 16  0  0  0  0  0  0  0  0999 V2000
   -0.4431    0.9218    0.0000 O   0  0  0  0  0  0  0  0  0
    0.2714    1.3343    0.0000 C   0  0  0  0  0  0  0  0  0
    0.2714    2.1593    0.0000 O   0  0  0  0  0  0  0  0  0
    0.9859    0.9218    0.0000 C   0  0  0  0  0  0  0  0  0
    1.7003    1.3343    0.0000 C   0  0  0  0  0  0  0  0  0
    2.4148    0.9218    0.0000 C   0  0  0  0  0  0  0  0  0
    2.4148    0.0968    0.0000 C   0  0  0  0  0  0  0  0  0
   -0.4431    0.0968    0.0000 C   0  0  0  0  0  0  0  0  0
    0.2714   -0.3157    0.0000 C   0  0  0  0  0  0  0  0  0
    0.2714   -1.1407    0.0000 C   0  0  0  0  0  0  0  0  0
   -0.4431   -1.5532    0.0000 C   0  0  0  0  0  0  0  0  0
   -1.1576   -1.1407    0.0000 C   0  0  0  0  0  0  0  0  0
   -1.1576   -0.3157    0.0000 C   0  0  0  0  0  0  0  0  0
   -1.8720    0.0968    0.0000 C   0  0  0  0  0  0  0  0  0
   -2.5865   -0.3157    0.0000 O   0  0  0  0  0  0  0  0  0
   -1.8720    0.9218    0.0000 O   0  0  0  0  0  0  0  0  0
  1  2  1  0  0  0  0
  1  8  1  0  0  0  0
  2  3  2  0  0  0  0
  2  4  1  0  0  0  0
  4  5  1  0  0  0  0
  5  6  1  0  0  0  0
  6  7  1  0  0  0  0
  8  9  4  0  0  0  0
  8 13  4  0  0  0  0
  9 10  4  0  0  0  0
 10 11  4  0  0  0  0
 11 12  4  0  0  0  0
 12 13  4  0  0  0  0
 13 14  1  0  0  0  0
 14 15  1  0  0  0  0
 14 16  2  0  0  0  0
M  END
>  <Name_Molregno>
valeryl-salicylate

>  <5-HT1A>
5

>  <5-HT1B>
5

>  <5-HT1D>
5

>  <5-HT1E>
5

>  <5-HT2A>
5

>  <5-HT3>
5

>  <5-HT5>
5

>  <5-HT6>
5

>  <5-HT7>
5

>  <Alpha-1A>
5

>  <Alpha-1B>
5

>  <Alpha-2A>
5

>  <Alpha-2B>
5

>  <Alpha-2C>
5

>  <DOPAMINE D1>
5

>  <DOPAMINE D2>
5

>  <DOPAMINE D4>
5

>  <DOPAMINE D5>
5

>  <HISTAMINE H1>
5

>  <HISTAMINE H2>
5

>  <HISTAMINE H4>
5

>  <Muscarinic acetylcholine receptor M2>
5

>  <Muscarinic acetylcholine receptor M5>
5

$$$$
Venlafaxine
  Marvin  02231216192D 0   1.00000     0.00000     0

 20 21  0  0  1  0  0  0  0  0999 V2000
    2.4113    2.7171    0.0000 O   0  0  0  0  0  0  0  0  0
    1.6968    3.1296    0.0000 C   0  0  0  0  0  0  0  0  0
    2.4113    1.8921    0.0000 C   0  0  0  0  0  0  0  0  0
    3.1257    1.4796    0.0000 C   0  0  0  0  0  0  0  0  0
    3.1257    0.6546    0.0000 C   0  0  0  0  0  0  0  0  0
    2.4113    0.2421    0.0000 C   0  0  0  0  0  0  0  0  0
    1.6968    0.6546    0.0000 C   0  0  0  0  0  0  0  0  0
    1.6968    1.4796    0.0000 C   0  0  0  0  0  0  0  0  0
    2.4113   -0.5829    0.0000 C   0  0  0  0  0  0  0  0  0
    1.6968   -0.9954    0.0000 C   0  0  0  0  0  0  0  0  0
    1.6968   -1.8204    0.0000 N   0  0  0  0  0  0  0  0  0
    2.4113   -2.2329    0.0000 C   0  0  0  0  0  0  0  0  0
    0.9823   -2.2329    0.0000 C   0  0  0  0  0  0  0  0  0
    3.1257   -0.9954    0.0000 C   0  0  0  0  0  0  0  0  0
    2.5954   -1.6274    0.0000 O   0  0  0  0  0  0  0  0  0
    3.4079   -0.2201    0.0000 C   0  0  0  0  0  0  0  0  0
    4.2204   -0.0769    0.0000 C   0  0  0  0  0  0  0  0  0
    4.7507   -0.7089    0.0000 C   0  0  0  0  0  0  0  0  0
    4.4685   -1.4841    0.0000 C   0  0  0  0  0  0  0  0  0
    3.6560   -1.6274    0.0000 C   0  0  0  0  0  0  0  0  0
  1  2  1  0  0  0  0
  1  3  1  0  0  0  0
  3  4  4  0  0  0  0
  3  8  4  0  0  0  0
  4  5  4  0  0  0  0
  5  6  4  0  0  0  0
  6  7  4  0  0  0  0
  6  9  1  0  0  0  0
  7  8  4  0  0  0  0
  9 10  1  0  0  0  0
  9 14  1  0  0  0  0
 10 11  1  0  0  0  0
 11 12  1  0  0  0  0
 11 13  1  0  0  0  0
 14 15  1  0  0  0  0
 14 16  1  0  0  0  0
 14 20  1  0  0  0  0
 16 17  1  0  0  0  0
 17 18  1  0  0  0  0
 18 19  1  0  0  0  0
 19 20  1  0  0  0  0
M  END
>  <Name_Molregno>
Venlafaxine

>  <5-HT1A>
5

>  <5-HT1B>
5

>  <5-HT1D>
5

>  <5-HT1E>
5

>  <5-HT2A>
5.33

>  <5-HT2C>
5.35

>  <5-HT6>
5.55

>  <5-HT7>
5

>  <Alpha-1A>
5

>  <Alpha-2A>
5.5

>  <DOPAMINE D2>
5

>  <DOPAMINE D3>
5

>  <Dopamine transporter>
5.17

>  <HISTAMINE H1>
5

>  <Muscarinic acetylcholine receptor M1>
5.5

>  <Muscarinic acetylcholine receptor M2>
5.5

>  <Muscarinic acetylcholine receptor M3>
5

>  <Muscarinic acetylcholine receptor M4>
5

>  <Muscarinic acetylcholine receptor M5>
5

>  <Norepinephrine transporter>
5.82

>  <Serotonin transporter>
7.43

$$$$
VERAPAMIL
  Marvin  02231216192D 0   1.00000     0.00000     0

 33 34  0  0  1  0  0  0  0  0999 V2000
   -0.5167   -1.2486    0.0000 O   0  0  0  0  0  0  0  0  0
    0.2948   -1.3971    0.0000 C   0  0  0  0  0  0  0  0  0
   -0.7939   -0.4715    0.0000 C   0  0  0  0  0  0  0  0  0
   -1.6054   -0.3230    0.0000 C   0  0  0  0  0  0  0  0  0
   -1.8825    0.4540    0.0000 C   0  0  0  0  0  0  0  0  0
   -1.3481    1.0826    0.0000 C   0  0  0  0  0  0  0  0  0
   -0.5366    0.9341    0.0000 C   0  0  0  0  0  0  0  0  0
   -0.2595    0.1570    0.0000 C   0  0  0  0  0  0  0  0  0
    0.5520    0.0085    0.0000 O   0  0  0  0  0  0  0  0  0
    1.0864    0.6370    0.0000 C   0  0  0  0  0  0  0  0  0
   -2.6940    0.6026    0.0000 C   0  0  0  0  0  0  0  0  0
   -2.5455    1.4141    0.0000 C   0  0  0  0  0  0  0  0  0
   -3.1741    1.9485    0.0000 C   0  0  0  0  0  0  0  0  0
   -1.7685    1.6912    0.0000 C   0  0  0  0  0  0  0  0  0
   -3.5056    0.7511    0.0000 C   0  0  0  0  0  0  0  0  0
   -4.0399    0.1225    0.0000 C   0  0  0  0  0  0  0  0  0
   -4.8515    0.2711    0.0000 C   0  0  0  0  0  0  0  0  0
   -5.3858   -0.3575    0.0000 N   0  0  0  0  0  0  0  0  0
   -6.1974   -0.2090    0.0000 C   0  0  0  0  0  0  0  0  0
   -6.7317   -0.8375    0.0000 C   0  0  0  0  0  0  0  0  0
   -7.5433   -0.6890    0.0000 C   0  0  0  0  0  0  0  0  0
   -8.0777   -1.3175    0.0000 C   0  0  0  0  0  0  0  0  0
   -8.8892   -1.1690    0.0000 C   0  0  0  0  0  0  0  0  0
   -9.4236   -1.7975    0.0000 O   0  0  0  0  0  0  0  0  0
  -10.2351   -1.6490    0.0000 C   0  0  0  0  0  0  0  0  0
   -9.1663   -0.3919    0.0000 C   0  0  0  0  0  0  0  0  0
   -9.9778   -0.2434    0.0000 O   0  0  0  0  0  0  0  0  0
  -10.5122   -0.8720    0.0000 C   0  0  0  0  0  0  0  0  0
   -8.6319    0.2366    0.0000 C   0  0  0  0  0  0  0  0  0
   -7.8204    0.0881    0.0000 C   0  0  0  0  0  0  0  0  0
   -5.1087   -1.1345    0.0000 C   0  0  0  0  0  0  0  0  0
   -2.8426   -0.2090    0.0000 C   0  0  0  0  0  0  0  0  0
   -2.9911   -1.0205    0.0000 N   0  0  0  0  0  0  0  0  0
  1  2  1  0  0  0  0
  1  3  1  0  0  0  0
  3  4  4  0  0  0  0
  3  8  4  0  0  0  0
  4  5  4  0  0  0  0
  5  6  4  0  0  0  0
  5 11  1  0  0  0  0
  6  7  4  0  0  0  0
  7  8  4  0  0  0  0
  8  9  1  0  0  0  0
  9 10  1  0  0  0  0
 11 12  1  0  0  0  0
 11 15  1  0  0  0  0
 11 32  1  0  0  0  0
 12 13  1  0  0  0  0
 12 14  1  0  0  0  0
 15 16  1  0  0  0  0
 16 17  1  0  0  0  0
 17 18  1  0  0  0  0
 18 19  1  0  0  0  0
 18 31  1  0  0  0  0
 19 20  1  0  0  0  0
 20 21  1  0  0  0  0
 21 22  4  0  0  0  0
 21 30  4  0  0  0  0
 22 23  4  0  0  0  0
 23 24  1  0  0  0  0
 23 26  4  0  0  0  0
 24 25  1  0  0  0  0
 26 27  1  0  0  0  0
 26 29  4  0  0  0  0
 27 28  1  0  0  0  0
 29 30  4  0  0  0  0
 32 33  3  0  0  0  0
M  END
>  <Name_Molregno>
VERAPAMIL

>  <5-HT2A>
6.85

$$$$
WB4101
  Marvin  02231216192D 0   1.00000     0.00000     0

 31 34  0  0  1  0  0  0  0  0999 V2000
   -5.5960   -0.0028    0.0000 O   0  0  0  0  0  0  0  0  0
   -5.5960   -0.8278    0.0000 C   0  0  0  0  0  0  0  0  0
   -4.8816   -1.2403    0.0000 C   0  0  0  0  0  0  0  0  0
   -4.1671   -0.8278    0.0000 O   0  0  0  0  0  0  0  0  0
   -4.1671   -0.0028    0.0000 C   0  0  0  0  0  0  0  0  0
   -3.4526    0.4097    0.0000 C   0  0  0  0  0  0  0  0  0
   -2.7381   -0.0028    0.0000 N   0  0  0  0  0  0  0  0  0
   -2.0237    0.4097    0.0000 C   0  0  0  0  0  0  0  0  0
   -1.3092   -0.0028    0.0000 C   0  0  0  0  0  0  0  0  0
   -0.5947    0.4097    0.0000 O   0  0  0  0  0  0  0  0  0
    0.1197   -0.0028    0.0000 C   0  0  0  0  0  0  0  0  0
    0.8342    0.4097    0.0000 C   0  0  0  0  0  0  0  0  0
    0.8342    1.2347    0.0000 O   0  0  0  0  0  0  0  0  0
    1.5487    1.6472    0.0000 C   0  0  0  0  0  0  0  0  0
    1.5487   -0.0028    0.0000 C   0  0  0  0  0  0  0  0  0
    1.5487   -0.8278    0.0000 C   0  0  0  0  0  0  0  0  0
    0.8342   -1.2403    0.0000 C   0  0  0  0  0  0  0  0  0
    0.1197   -0.8278    0.0000 C   0  0  0  0  0  0  0  0  0
   -0.5947   -1.2403    0.0000 O   0  0  0  0  0  0  0  0  0
   -0.5947   -2.0653    0.0000 C   0  0  0  0  0  0  0  0  0
   -4.8816    0.4097    0.0000 C   0  0  0  0  0  0  0  0  0
   -4.8816    1.2347    0.0000 C   0  0  0  0  0  0  0  0  0
   -5.5960    1.6472    0.0000 C   0  0  0  0  0  0  0  0  0
   -5.5960    2.4722    0.0000 C   0  0  0  0  0  0  0  0  0
   -4.8816    2.8847    0.0000 C   0  0  0  0  0  0  0  0  0
   -4.1671    2.4722    0.0000 C   0  0  0  0  0  0  0  0  0
   -4.1671    1.6472    0.0000 C   0  0  0  0  0  0  0  0  0
   -4.8816   -2.0653    0.0000 C   0  0  0  0  0  0  0  0  0
   -5.5960   -2.4778    0.0000 C   0  0  0  0  0  0  0  0  0
   -6.3105   -2.0653    0.0000 C   0  0  0  0  0  0  0  0  0
   -6.3105   -1.2403    0.0000 C   0  0  0  0  0  0  0  0  0
  1  2  1  0  0  0  0
  1 21  1  0  0  0  0
  2  3  4  0  0  0  0
  2 31  4  0  0  0  0
  3  4  1  0  0  0  0
  3 28  4  0  0  0  0
  4  5  1  0  0  0  0
  5  6  1  0  0  0  0
  5 21  1  0  0  0  0
  6  7  1  0  0  0  0
  7  8  1  0  0  0  0
  8  9  1  0  0  0  0
  9 10  1  0  0  0  0
 10 11  1  0  0  0  0
 11 12  4  0  0  0  0
 11 18  4  0  0  0  0
 12 13  1  0  0  0  0
 12 15  4  0  0  0  0
 13 14  1  0  0  0  0
 15 16  4  0  0  0  0
 16 17  4  0  0  0  0
 17 18  4  0  0  0  0
 18 19  1  0  0  0  0
 19 20  1  0  0  0  0
 21 22  1  0  0  0  0
 22 23  4  0  0  0  0
 22 27  4  0  0  0  0
 23 24  4  0  0  0  0
 24 25  4  0  0  0  0
 25 26  4  0  0  0  0
 26 27  4  0  0  0  0
 28 29  4  0  0  0  0
 29 30  4  0  0  0  0
 30 31  4  0  0  0  0
M  END
>  <Name_Molregno>
WB4101

>  <5-HT1D>
6.19

>  <5-HT2A>
5.3

>  <Alpha-2A>
8.45

>  <Alpha-2B>
7.75

>  <Alpha-2C>
8.95

$$$$
ZACOPRIDE
  Marvin  02231216192D 0   1.00000     0.00000     0

 21 23  0  0  1  0  0  0  0  0999 V2000
    1.1563    1.4853    0.0000 Cl  0  0  0  0  0  0  0  0  0
    1.1686    0.6604    0.0000 C   0  0  0  0  0  0  0  0  0
    1.8892    0.2587    0.0000 C   0  0  0  0  0  0  0  0  0
    1.9016   -0.5662    0.0000 C   0  0  0  0  0  0  0  0  0
    2.6222   -0.9679    0.0000 C   0  0  0  0  0  0  0  0  0
    3.3304   -0.5448    0.0000 O   0  0  0  0  0  0  0  0  0
    2.6346   -1.7928    0.0000 N   0  0  0  0  0  0  0  0  0
    3.3552   -2.1946    0.0000 C   0  0  0  0  0  0  0  0  0
    4.1590   -1.8427    0.0000 C   0  0  0  0  0  0  0  0  0
    4.8976   -2.1750    0.0000 C   0  0  0  0  0  0  0  0  0
    5.0502   -2.9380    0.0000 C   0  0  0  0  0  0  0  0  0
    4.3017   -2.5911    0.0000 N   0  0  0  0  0  0  0  0  0
    3.4624   -2.9500    0.0000 C   0  0  0  0  0  0  0  0  0
    4.4414   -1.5525    0.0000 C   0  0  0  0  0  0  0  0  0
    4.1967   -0.9466    0.0000 C   0  0  0  0  0  0  0  0  0
    1.1934   -0.9894    0.0000 C   0  0  0  0  0  0  0  0  0
    1.2058   -1.8143    0.0000 O   0  0  0  0  0  0  0  0  0
    0.4976   -2.2375    0.0000 C   0  0  0  0  0  0  0  0  0
    0.4728   -0.5877    0.0000 C   0  0  0  0  0  0  0  0  0
    0.4604    0.2372    0.0000 C   0  0  0  0  0  0  0  0  0
   -0.2601    0.6390    0.0000 N   0  0  0  0  0  0  0  0  0
  1  2  1  0  0  0  0
  2  3  4  0  0  0  0
  2 20  4  0  0  0  0
  3  4  4  0  0  0  0
  4  5  1  0  0  0  0
  4 16  4  0  0  0  0
  5  6  2  0  0  0  0
  5  7  1  0  0  0  0
  7  8  1  0  0  0  0
  8  9  1  0  0  0  0
  8 13  1  0  0  0  0
  9 10  1  0  0  0  0
  9 15  1  0  0  0  0
 10 11  1  0  0  0  0
 11 12  1  0  0  0  0
 12 13  1  0  0  0  0
 12 14  1  0  0  0  0
 14 15  1  0  0  0  0
 16 17  1  0  0  0  0
 16 19  4  0  0  0  0
 17 18  1  0  0  0  0
 19 20  4  0  0  0  0
 20 21  1  0  0  0  0
M  END
>  <Name_Molregno>
ZACOPRIDE

>  <5-HT1E>
5

>  <5-HT2A>
5.87

>  <5-HT2C>
6.1

>  <5-HT5>
4.8

>  <5-HT7>
5

$$$$
ZIPRASIDONE
  Marvin  02231216192D 0   1.00000     0.00000     0

 28 32  0  0  0  0  0  0  0  0999 V2000
   -5.2868    0.2535    0.0000 Cl  0  0  0  0  0  0  0  0  0
   -4.7347    0.8666    0.0000 C   0  0  0  0  0  0  0  0  0
   -4.9897    1.6513    0.0000 C   0  0  0  0  0  0  0  0  0
   -4.4376    2.2643    0.0000 C   0  0  0  0  0  0  0  0  0
   -4.5239    3.0848    0.0000 N   0  0  0  0  0  0  0  0  0
   -3.7702    3.4204    0.0000 C   0  0  0  0  0  0  0  0  0
   -3.5987    4.2274    0.0000 O   0  0  0  0  0  0  0  0  0
   -3.2182    2.8073    0.0000 C   0  0  0  0  0  0  0  0  0
   -3.6307    2.0928    0.0000 C   0  0  0  0  0  0  0  0  0
   -3.3757    1.3082    0.0000 C   0  0  0  0  0  0  0  0  0
   -3.9278    0.6951    0.0000 C   0  0  0  0  0  0  0  0  0
   -3.6728   -0.0895    0.0000 C   0  0  0  0  0  0  0  0  0
   -2.8658   -0.2610    0.0000 C   0  0  0  0  0  0  0  0  0
   -2.6109   -1.0457    0.0000 N   0  0  0  0  0  0  0  0  0
   -1.8039   -1.2172    0.0000 C   0  0  0  0  0  0  0  0  0
   -1.5490   -2.0018    0.0000 C   0  0  0  0  0  0  0  0  0
   -2.1010   -2.6149    0.0000 N   0  0  0  0  0  0  0  0  0
   -2.9080   -2.4434    0.0000 C   0  0  0  0  0  0  0  0  0
   -3.1629   -1.6588    0.0000 C   0  0  0  0  0  0  0  0  0
   -1.8461   -3.3995    0.0000 C   0  0  0  0  0  0  0  0  0
   -2.3310   -4.0670    0.0000 N   0  0  0  0  0  0  0  0  0
   -1.8461   -4.7344    0.0000 S   0  0  0  0  0  0  0  0  0
   -1.0615   -4.4795    0.0000 C   0  0  0  0  0  0  0  0  0
   -1.0615   -3.6545    0.0000 C   0  0  0  0  0  0  0  0  0
   -0.3470   -3.2420    0.0000 C   0  0  0  0  0  0  0  0  0
    0.3675   -3.6545    0.0000 C   0  0  0  0  0  0  0  0  0
    0.3675   -4.4795    0.0000 C   0  0  0  0  0  0  0  0  0
   -0.3470   -4.8920    0.0000 C   0  0  0  0  0  0  0  0  0
  1  2  1  0  0  0  0
  2  3  4  0  0  0  0
  2 11  4  0  0  0  0
  3  4  4  0  0  0  0
  4  5  1  0  0  0  0
  4  9  4  0  0  0  0
  5  6  1  0  0  0  0
  6  7  2  0  0  0  0
  6  8  1  0  0  0  0
  8  9  1  0  0  0  0
  9 10  4  0  0  0  0
 10 11  4  0  0  0  0
 11 12  1  0  0  0  0
 12 13  1  0  0  0  0
 13 14  1  0  0  0  0
 14 15  1  0  0  0  0
 14 19  1  0  0  0  0
 15 16  1  0  0  0  0
 16 17  1  0  0  0  0
 17 18  1  0  0  0  0
 17 20  1  0  0  0  0
 18 19  1  0  0  0  0
 20 21  4  0  0  0  0
 20 24  4  0  0  0  0
 21 22  4  0  0  0  0
 22 23  4  0  0  0  0
 23 24  4  0  0  0  0
 23 28  4  0  0  0  0
 24 25  4  0  0  0  0
 25 26  4  0  0  0  0
 26 27  4  0  0  0  0
 27 28  4  0  0  0  0
M  END
>  <Name_Molregno>
ZIPRASIDONE

>  <5-HT1A>
8.19

>  <5-HT1B>
8.7

>  <5-HT1D>
8.32

>  <5-HT1E>
6.17

>  <5-HT2A>
9.54

>  <5-HT2C>
8.82

>  <5-HT3>
5.7

>  <5-HT5>
6.54

>  <5-HT6>
7.17

>  <5-HT7>
8.23

>  <Alpha-1A>
7.74

>  <Alpha-1B>
8.05

>  <Alpha-2A>
6.8

>  <Alpha-2B>
7.32

>  <Alpha-2C>
7.15

>  <Beta-1>
5.3

>  <Beta-2>
5.15

>  <DOPAMINE D1>
7.1

>  <DOPAMINE D2>
8.39

>  <DOPAMINE D3>
8.21

>  <DOPAMINE D4>
7.43

>  <DOPAMINE D5>
6.82

>  <Dopamine transporter>
5

>  <HISTAMINE H1>
7.51

>  <HISTAMINE H2>
5.46

>  <HISTAMINE H4>
5

>  <Muscarinic acetylcholine receptor M1>
5.53

>  <Muscarinic acetylcholine receptor M2>
5.26

>  <Muscarinic acetylcholine receptor M3>
5.3

>  <Muscarinic acetylcholine receptor M4>
5.4

>  <Muscarinic acetylcholine receptor M5>
5.4

>  <Norepinephrine transporter>
7.36

>  <Serotonin transporter>
6.92

$$$$
ZOTEPINE
  Marvin  02231216192D 0   1.00000     0.00000     0

 22 24  0  0  0  0  0  0  0  0999 V2000
    1.8575   -4.4413    0.0000 Cl  0  0  0  0  0  0  0  0  0
    1.0691   -4.1981    0.0000 C   0  0  0  0  0  0  0  0  0
    0.8856   -3.3938    0.0000 C   0  0  0  0  0  0  0  0  0
    0.0972   -3.1507    0.0000 C   0  0  0  0  0  0  0  0  0
   -0.5076   -3.7118    0.0000 C   0  0  0  0  0  0  0  0  0
   -1.3233   -3.5888    0.0000 S   0  0  0  0  0  0  0  0  0
   -1.7358   -2.8744    0.0000 C   0  0  0  0  0  0  0  0  0
   -1.4344   -2.1064    0.0000 C   0  0  0  0  0  0  0  0  0
   -0.6461   -1.8632    0.0000 C   0  0  0  0  0  0  0  0  0
    0.0356   -2.3280    0.0000 C   0  0  0  0  0  0  0  0  0
    0.7500   -1.9155    0.0000 O   0  0  0  0  0  0  0  0  0
    1.4645   -2.3280    0.0000 C   0  0  0  0  0  0  0  0  0
    2.1790   -1.9155    0.0000 C   0  0  0  0  0  0  0  0  0
    2.8934   -2.3280    0.0000 N   0  0  0  0  0  0  0  0  0
    3.6079   -1.9155    0.0000 C   0  0  0  0  0  0  0  0  0
    2.8934   -3.1530    0.0000 C   0  0  0  0  0  0  0  0  0
   -1.9488   -1.4614    0.0000 C   0  0  0  0  0  0  0  0  0
   -2.7646   -1.5843    0.0000 C   0  0  0  0  0  0  0  0  0
   -3.0660   -2.3523    0.0000 C   0  0  0  0  0  0  0  0  0
   -2.5516   -2.9973    0.0000 C   0  0  0  0  0  0  0  0  0
   -0.3240   -4.5161    0.0000 C   0  0  0  0  0  0  0  0  0
    0.4644   -4.7593    0.0000 C   0  0  0  0  0  0  0  0  0
  1  2  1  0  0  0  0
  2  3  4  0  0  0  0
  2 22  4  0  0  0  0
  3  4  4  0  0  0  0
  4  5  4  0  0  0  0
  4 10  1  0  0  0  0
  5  6  1  0  0  0  0
  5 21  4  0  0  0  0
  6  7  1  0  0  0  0
  7  8  4  0  0  0  0
  7 20  4  0  0  0  0
  8  9  1  0  0  0  0
  8 17  4  0  0  0  0
  9 10  2  0  0  0  0
 10 11  1  0  0  0  0
 11 12  1  0  0  0  0
 12 13  1  0  0  0  0
 13 14  1  0  0  0  0
 14 15  1  0  0  0  0
 14 16  1  0  0  0  0
 17 18  4  0  0  0  0
 18 19  4  0  0  0  0
 19 20  4  0  0  0  0
 21 22  4  0  0  0  0
M  END
>  <Name_Molregno>
ZOTEPINE

>  <5-HT1A>
6.41

>  <5-HT1B>
7.23

>  <5-HT1D>
7.02

>  <5-HT1E>
6.23

>  <5-HT2A>
8.58

>  <5-HT2C>
8.49

>  <5-HT3>
6.33

>  <5-HT5>
7.54

>  <5-HT6>
8.22

>  <5-HT7>
7.92

>  <Alpha-1A>
8.15

>  <Alpha-1B>
8.3

>  <Alpha-2A>
6.68

>  <Alpha-2B>
8.27

>  <Alpha-2C>
7.02

>  <Beta-1>
5.19

>  <Beta-2>
5.32

>  <DOPAMINE D1>
7.15

>  <DOPAMINE D2>
7.98

>  <DOPAMINE D3>
8.19

>  <DOPAMINE D4>
7.57

>  <DOPAMINE D5>
6.61

>  <Dopamine transporter>
5.44

>  <HISTAMINE H1>
8.64

>  <HISTAMINE H2>
6.3

>  <HISTAMINE H4>
5.7

>  <Muscarinic acetylcholine receptor M1>
6.37

>  <Muscarinic acetylcholine receptor M2>
5.92

>  <Muscarinic acetylcholine receptor M3>
6.07

>  <Muscarinic acetylcholine receptor M4>
6.06

>  <Muscarinic acetylcholine receptor M5>
5.8

>  <Norepinephrine transporter>
6.28

>  <Serotonin transporter>
6.41

$$$$
