2150
  Marvin  02231216192D 0   1.00000     0.00000     0

 23 26  0  0  0  0  0  0  0  0999 V2000
    0.0748   -0.9429    0.0000 Cl  0  0  0  0  0  0  0  0  0
    0.8818   -0.7714    0.0000 C   0  0  0  0  0  0  0  0  0
    1.1368    0.0132    0.0000 C   0  0  0  0  0  0  0  0  0
    1.9437    0.1847    0.0000 C   0  0  0  0  0  0  0  0  0
    2.4958   -0.4284    0.0000 C   0  0  0  0  0  0  0  0  0
    3.3027   -0.2568    0.0000 N   0  0  0  0  0  0  0  0  0
    3.5577    0.5278    0.0000 C   0  0  0  0  0  0  0  0  0
    4.3646    0.6993    0.0000 C   0  0  0  0  0  0  0  0  0
    4.9167    0.0862    0.0000 N   0  0  0  0  0  0  0  0  0
    4.6617   -0.6984    0.0000 C   0  0  0  0  0  0  0  0  0
    3.8548   -0.8699    0.0000 C   0  0  0  0  0  0  0  0  0
    5.7237    0.2578    0.0000 C   0  0  0  0  0  0  0  0  0
    5.9786    1.0424    0.0000 C   0  0  0  0  0  0  0  0  0
    6.7632    1.2973    0.0000 C   0  0  0  0  0  0  0  0  0
    6.7632    2.1223    0.0000 C   0  0  0  0  0  0  0  0  0
    5.9786    2.3773    0.0000 N   0  0  0  0  0  0  0  0  0
    5.4937    1.7098    0.0000 C   0  0  0  0  0  0  0  0  0
    7.4777    2.5348    0.0000 C   0  0  0  0  0  0  0  0  0
    8.1922    2.1223    0.0000 C   0  0  0  0  0  0  0  0  0
    8.1922    1.2973    0.0000 C   0  0  0  0  0  0  0  0  0
    7.4777    0.8848    0.0000 C   0  0  0  0  0  0  0  0  0
    2.2408   -1.2130    0.0000 C   0  0  0  0  0  0  0  0  0
    1.4339   -1.3845    0.0000 C   0  0  0  0  0  0  0  0  0
  1  2  1  0  0  0  0
  2  3  4  0  0  0  0
  2 23  4  0  0  0  0
  3  4  4  0  0  0  0
  4  5  4  0  0  0  0
  5  6  1  0  0  0  0
  5 22  4  0  0  0  0
  6  7  1  0  0  0  0
  6 11  1  0  0  0  0
  7  8  1  0  0  0  0
  8  9  1  0  0  0  0
  9 10  1  0  0  0  0
  9 12  1  0  0  0  0
 10 11  1  0  0  0  0
 12 13  1  0  0  0  0
 13 14  4  0  0  0  0
 13 17  4  0  0  0  0
 14 15  4  0  0  0  0
 14 21  4  0  0  0  0
 15 16  4  0  0  0  0
 15 18  4  0  0  0  0
 16 17  4  0  0  0  0
 18 19  4  0  0  0  0
 19 20  4  0  0  0  0
 20 21  4  0  0  0  0
 22 23  4  0  0  0  0
M  STY  1   1 DAT
M  SAL   1  1  16
M  SDT   1 MRV_IMPLICIT_H                                        
M  SDD   1     0.0000    0.0000    DR    ALL  0       0  
M  SED   1 IMPL_H1
M  END
>  <Name_Molregno>
2150

>  <DOPAMINE D2>
7.15

>  <DOPAMINE D3>
6.82

>  <DOPAMINE D4>
8.8

$$$$
2246
  Marvin  02231216192D 0   1.00000     0.00000     0

 23 26  0  0  0  0  0  0  0  0999 V2000
    0.0748    1.8640    0.0000 Cl  0  0  0  0  0  0  0  0  0
    0.8818    1.6925    0.0000 C   0  0  0  0  0  0  0  0  0
    1.4339    2.3056    0.0000 C   0  0  0  0  0  0  0  0  0
    2.2408    2.1340    0.0000 C   0  0  0  0  0  0  0  0  0
    2.4958    1.3494    0.0000 C   0  0  0  0  0  0  0  0  0
    3.3027    1.1779    0.0000 N   0  0  0  0  0  0  0  0  0
    3.8548    1.7910    0.0000 C   0  0  0  0  0  0  0  0  0
    4.6617    1.6194    0.0000 C   0  0  0  0  0  0  0  0  0
    4.9167    0.8348    0.0000 N   0  0  0  0  0  0  0  0  0
    4.3646    0.2217    0.0000 C   0  0  0  0  0  0  0  0  0
    3.5577    0.3933    0.0000 C   0  0  0  0  0  0  0  0  0
    5.7237    0.6633    0.0000 C   0  0  0  0  0  0  0  0  0
    5.9786   -0.1213    0.0000 C   0  0  0  0  0  0  0  0  0
    6.7632   -0.3763    0.0000 C   0  0  0  0  0  0  0  0  0
    7.4777    0.0362    0.0000 C   0  0  0  0  0  0  0  0  0
    8.1922   -0.3763    0.0000 C   0  0  0  0  0  0  0  0  0
    8.1922   -1.2013    0.0000 C   0  0  0  0  0  0  0  0  0
    7.4777   -1.6138    0.0000 N   0  0  0  0  0  0  0  0  0
    6.7632   -1.2013    0.0000 C   0  0  0  0  0  0  0  0  0
    5.9786   -1.4562    0.0000 N   0  0  0  0  0  0  0  0  0
    5.4937   -0.7888    0.0000 C   0  0  0  0  0  0  0  0  0
    1.9437    0.7363    0.0000 C   0  0  0  0  0  0  0  0  0
    1.1368    0.9078    0.0000 C   0  0  0  0  0  0  0  0  0
  1  2  1  0  0  0  0
  2  3  4  0  0  0  0
  2 23  4  0  0  0  0
  3  4  4  0  0  0  0
  4  5  4  0  0  0  0
  5  6  1  0  0  0  0
  5 22  4  0  0  0  0
  6  7  1  0  0  0  0
  6 11  1  0  0  0  0
  7  8  1  0  0  0  0
  8  9  1  0  0  0  0
  9 10  1  0  0  0  0
  9 12  1  0  0  0  0
 10 11  1  0  0  0  0
 12 13  1  0  0  0  0
 13 14  4  0  0  0  0
 13 21  4  0  0  0  0
 14 15  4  0  0  0  0
 14 19  4  0  0  0  0
 15 16  4  0  0  0  0
 16 17  4  0  0  0  0
 17 18  4  0  0  0  0
 18 19  4  0  0  0  0
 19 20  4  0  0  0  0
 20 21  4  0  0  0  0
 22 23  4  0  0  0  0
M  STY  1   1 DAT
M  SAL   1  1  20
M  SDT   1 MRV_IMPLICIT_H                                        
M  SDD   1     0.0000    0.0000    DR    ALL  0       0  
M  SED   1 IMPL_H1
M  END
>  <Name_Molregno>
2246

>  <5-HT1A>
5.18

>  <5-HT1B>
5

>  <5-HT1D>
5

>  <5-HT1E>
5

>  <5-HT2A>
6.17

>  <5-HT2C>
5.5

>  <5-HT5>
5

>  <5-HT6>
5.78

>  <5-HT7>
6.65

>  <DOPAMINE D2>
5.31

>  <DOPAMINE D3>
5.16

>  <DOPAMINE D4>
9.34

$$$$
2361
  Marvin  02231216192D 0   1.00000     0.00000     0

 23 26  0  0  0  0  0  0  0  0999 V2000
    0.0748   -0.9429    0.0000 Cl  0  0  0  0  0  0  0  0  0
    0.8818   -0.7714    0.0000 C   0  0  0  0  0  0  0  0  0
    1.1368    0.0132    0.0000 C   0  0  0  0  0  0  0  0  0
    1.9437    0.1847    0.0000 C   0  0  0  0  0  0  0  0  0
    2.4958   -0.4284    0.0000 C   0  0  0  0  0  0  0  0  0
    3.3027   -0.2568    0.0000 N   0  0  0  0  0  0  0  0  0
    3.5577    0.5278    0.0000 C   0  0  0  0  0  0  0  0  0
    4.3646    0.6993    0.0000 C   0  0  0  0  0  0  0  0  0
    4.9167    0.0862    0.0000 N   0  0  0  0  0  0  0  0  0
    4.6617   -0.6984    0.0000 C   0  0  0  0  0  0  0  0  0
    3.8548   -0.8699    0.0000 C   0  0  0  0  0  0  0  0  0
    5.7237    0.2578    0.0000 C   0  0  0  0  0  0  0  0  0
    5.9786    1.0424    0.0000 C   0  0  0  0  0  0  0  0  0
    6.7632    1.2973    0.0000 C   0  0  0  0  0  0  0  0  0
    6.7632    2.1223    0.0000 N   0  0  0  0  0  0  0  0  0
    5.9786    2.3773    0.0000 N   0  0  0  0  0  0  0  0  0
    5.4937    1.7098    0.0000 C   0  0  0  0  0  0  0  0  0
    7.4777    2.5348    0.0000 C   0  0  0  0  0  0  0  0  0
    8.1922    2.1223    0.0000 C   0  0  0  0  0  0  0  0  0
    8.1922    1.2973    0.0000 C   0  0  0  0  0  0  0  0  0
    7.4777    0.8848    0.0000 C   0  0  0  0  0  0  0  0  0
    2.2408   -1.2130    0.0000 C   0  0  0  0  0  0  0  0  0
    1.4339   -1.3845    0.0000 C   0  0  0  0  0  0  0  0  0
  1  2  1  0  0  0  0
  2  3  4  0  0  0  0
  2 23  4  0  0  0  0
  3  4  4  0  0  0  0
  4  5  4  0  0  0  0
  5  6  1  0  0  0  0
  5 22  4  0  0  0  0
  6  7  1  0  0  0  0
  6 11  1  0  0  0  0
  7  8  1  0  0  0  0
  8  9  1  0  0  0  0
  9 10  1  0  0  0  0
  9 12  1  0  0  0  0
 10 11  1  0  0  0  0
 12 13  1  0  0  0  0
 13 14  4  0  0  0  0
 13 17  4  0  0  0  0
 14 15  4  0  0  0  0
 14 21  4  0  0  0  0
 15 16  4  0  0  0  0
 15 18  4  0  0  0  0
 16 17  4  0  0  0  0
 18 19  4  0  0  0  0
 19 20  4  0  0  0  0
 20 21  4  0  0  0  0
 22 23  4  0  0  0  0
M  END
>  <Name_Molregno>
2361

>  <DOPAMINE D2>
5.52

>  <DOPAMINE D3>
5.34

>  <DOPAMINE D4>
8.51

$$$$
2724
  Marvin  02231216192D 0   1.00000     0.00000     0

 16 17  0  0  1  0  0  0  0  0999 V2000
    1.7558    2.8334    0.0000 O   0  0  0  0  0  0  0  0  0
    1.7558    2.0084    0.0000 C   0  0  0  0  0  0  0  0  0
    2.4703    1.5959    0.0000 C   0  0  0  0  0  0  0  0  0
    2.4703    0.7709    0.0000 C   0  0  0  0  0  0  0  0  0
    1.7558    0.3584    0.0000 C   0  0  0  0  0  0  0  0  0
    1.0413    0.7709    0.0000 C   0  0  0  0  0  0  0  0  0
    1.0413    1.5959    0.0000 C   0  0  0  0  0  0  0  0  0
    3.1847    0.3584    0.0000 C   0  0  0  0  0  0  0  0  0
    3.8992    0.7709    0.0000 C   0  0  0  0  0  0  0  0  0
    4.6137    0.3584    0.0000 C   0  0  0  0  0  0  0  0  0
    4.6137   -0.4666    0.0000 C   0  0  0  0  0  0  0  0  0
    3.8992   -0.8791    0.0000 N   0  0  0  0  0  0  0  0  0
    3.1847   -0.4666    0.0000 C   0  0  0  0  0  0  0  0  0
    3.8992   -1.7041    0.0000 C   0  0  0  0  0  0  0  0  0
    3.1847   -2.1166    0.0000 C   0  0  0  0  0  0  0  0  0
    3.1847   -2.9416    0.0000 C   0  0  0  0  0  0  0  0  0
  1  2  1  0  0  0  0
  2  3  4  0  0  0  0
  2  7  4  0  0  0  0
  3  4  4  0  0  0  0
  4  5  4  0  0  0  0
  4  8  1  0  0  0  0
  5  6  4  0  0  0  0
  6  7  4  0  0  0  0
  8  9  1  0  0  0  0
  8 13  1  0  0  0  0
  9 10  1  0  0  0  0
 10 11  1  0  0  0  0
 11 12  1  0  0  0  0
 12 13  1  0  0  0  0
 12 14  1  0  0  0  0
 14 15  1  0  0  0  0
 15 16  1  0  0  0  0
M  END
>  <Name_Molregno>
2724

>  <5-HT1A>
5.73

>  <5-HT1E>
5

>  <5-HT3>
5

>  <5-HT5>
5

>  <5-HT6>
5

>  <Alpha-1A>
5

>  <Alpha-1B>
5

>  <Beta-2>
5

>  <DOPAMINE D1>
5

>  <DOPAMINE D2>
6.47

>  <DOPAMINE D3>
6.93

>  <DOPAMINE D4>
6.29

>  <DOPAMINE D5>
5.31

>  <Dopamine transporter>
5

>  <Muscarinic acetylcholine receptor M1>
5

>  <Muscarinic acetylcholine receptor M2>
5

>  <Muscarinic acetylcholine receptor M3>
5

>  <Muscarinic acetylcholine receptor M4>
5

>  <Muscarinic acetylcholine receptor M5>
5

>  <Norepinephrine transporter>
5.64

>  <Serotonin transporter>
5

$$$$
4259
  Marvin  02231216192D 0   1.00000     0.00000     0

 27 31  0  0  1  0  0  0  0  0999 V2000
   -0.2544   -2.3296    0.0000 O   0  0  0  0  0  0  0  0  0
    0.3866   -1.8102    0.0000 C   0  0  0  0  0  0  0  0  0
    0.8114   -1.1029    0.0000 C   0  0  0  0  0  0  0  0  0
    1.6362   -1.1171    0.0000 C   0  0  0  0  0  0  0  0  0
    2.0364   -1.8386    0.0000 N   0  0  0  0  0  0  0  0  0
    1.6117   -2.5458    0.0000 C   0  0  0  0  0  0  0  0  0
    0.7868   -2.5317    0.0000 C   0  0  0  0  0  0  0  0  0
    2.8613   -1.8527    0.0000 C   0  0  0  0  0  0  0  0  0
    3.1740   -1.1970    0.0000 C   0  0  0  0  0  0  0  0  0
    2.8858   -0.4240    0.0000 C   0  0  0  0  0  0  0  0  0
    2.0609   -0.4098    0.0000 C   0  0  0  0  0  0  0  0  0
    1.6608    0.3116    0.0000 C   0  0  0  0  0  0  0  0  0
    2.0855    1.0189    0.0000 C   0  0  0  0  0  0  0  0  0
    2.9104    1.0047    0.0000 C   0  0  0  0  0  0  0  0  0
    3.3105    0.2833    0.0000 C   0  0  0  0  0  0  0  0  0
    4.1283    0.3922    0.0000 C   0  0  0  0  0  0  0  0  0
    4.7234   -0.1792    0.0000 C   0  0  0  0  0  0  0  0  0
    4.6476   -1.0008    0.0000 C   0  0  0  0  0  0  0  0  0
    3.9581   -1.4537    0.0000 C   0  0  0  0  0  0  0  0  0
    4.0056   -2.2773    0.0000 C   0  0  0  0  0  0  0  0  0
    4.7426   -2.6480    0.0000 C   0  0  0  0  0  0  0  0  0
    5.4321   -2.1951    0.0000 C   0  0  0  0  0  0  0  0  0
    5.3846   -1.3714    0.0000 C   0  0  0  0  0  0  0  0  0
   -0.2361   -1.2691    0.0000 C   0  0  0  0  0  0  0  0  0
   -0.8589   -0.7281    0.0000 C   0  0  0  0  0  0  0  0  0
    0.3049   -0.6464    0.0000 C   0  0  0  0  0  0  0  0  0
   -0.7772   -1.8919    0.0000 C   0  0  0  0  0  0  0  0  0
  1  2  1  0  0  0  0
  2  3  1  0  0  0  0
  2  7  1  0  0  0  0
  2 24  1  0  0  0  0
  3  4  1  0  0  0  0
  4  5  1  0  0  0  0
  4 11  1  0  0  0  0
  5  6  1  0  0  0  0
  5  8  1  0  0  0  0
  6  7  1  0  0  0  0
  8  9  1  0  0  0  0
  9 10  1  0  0  0  0
  9 19  1  0  0  0  0
 10 11  4  0  0  0  0
 10 15  4  0  0  0  0
 11 12  4  0  0  0  0
 12 13  4  0  0  0  0
 13 14  4  0  0  0  0
 14 15  4  0  0  0  0
 15 16  1  0  0  0  0
 16 17  1  0  0  0  0
 17 18  1  0  0  0  0
 18 19  4  0  0  0  0
 18 23  4  0  0  0  0
 19 20  4  0  0  0  0
 20 21  4  0  0  0  0
 21 22  4  0  0  0  0
 22 23  4  0  0  0  0
 24 25  1  0  0  0  0
 24 26  1  0  0  0  0
 24 27  1  0  0  0  0
M  END
>  <Name_Molregno>
4259

>  <5-HT1A>
6.08

>  <5-HT2A>
8.67

>  <DOPAMINE D1>
8.63

>  <DOPAMINE D2>
8.72

>  <DOPAMINE D3>
8.22

>  <DOPAMINE D4>
7.2

>  <DOPAMINE D5>
7.57

>  <HISTAMINE H1>
6.55

$$$$
4778
  Marvin  02231216192D 0   1.00000     0.00000     0

 20 22  0  0  1  0  0  0  0  0999 V2000
    0.1938   -0.4763    0.0000 Cl  0  0  0  0  0  0  0  0  0
    0.9083   -0.0638    0.0000 C   0  0  0  0  0  0  0  0  0
    1.6227   -0.4763    0.0000 C   0  0  0  0  0  0  0  0  0
    2.3372   -0.0638    0.0000 C   0  0  0  0  0  0  0  0  0
    2.3372    0.7612    0.0000 C   0  0  0  0  0  0  0  0  0
    1.6227    1.1737    0.0000 C   0  0  0  0  0  0  0  0  0
    0.9083    0.7612    0.0000 C   0  0  0  0  0  0  0  0  0
    0.1938    1.1737    0.0000 O   0  0  0  0  0  0  0  0  0
    2.9822    1.2756    0.0000 C   0  0  0  0  0  0  0  0  0
    3.7865    1.0920    0.0000 C   0  0  0  0  0  0  0  0  0
    4.1445    0.3487    0.0000 N   0  0  0  0  0  0  0  0  0
    3.7865   -0.3946    0.0000 C   0  0  0  0  0  0  0  0  0
    2.9822   -0.5782    0.0000 C   0  0  0  0  0  0  0  0  0
    4.9695    0.3487    0.0000 C   0  0  0  0  0  0  0  0  0
    2.7986    2.0799    0.0000 C   0  0  0  0  0  0  0  0  0
    2.0103    2.3230    0.0000 C   0  0  0  0  0  0  0  0  0
    1.8267    3.1274    0.0000 C   0  0  0  0  0  0  0  0  0
    2.4315    3.6885    0.0000 C   0  0  0  0  0  0  0  0  0
    3.2198    3.4453    0.0000 C   0  0  0  0  0  0  0  0  0
    3.4034    2.6410    0.0000 C   0  0  0  0  0  0  0  0  0
  1  2  1  0  0  0  0
  2  3  4  0  0  0  0
  2  7  4  0  0  0  0
  3  4  4  0  0  0  0
  4  5  4  0  0  0  0
  4 13  1  0  0  0  0
  5  6  4  0  0  0  0
  5  9  1  0  0  0  0
  6  7  4  0  0  0  0
  7  8  1  0  0  0  0
  9 10  1  0  0  0  0
  9 15  1  0  0  0  0
 10 11  1  0  0  0  0
 11 12  1  0  0  0  0
 11 14  1  0  0  0  0
 12 13  1  0  0  0  0
 15 16  4  0  0  0  0
 15 20  4  0  0  0  0
 16 17  4  0  0  0  0
 17 18  4  0  0  0  0
 18 19  4  0  0  0  0
 19 20  4  0  0  0  0
M  END
>  <Name_Molregno>
4778

>  <5-HT1A>
6.18

>  <5-HT2A>
7.88

>  <5-HT2C>
7.39

>  <5-HT3>
5

>  <DOPAMINE D1>
8.84

>  <DOPAMINE D2>
6.09

>  <DOPAMINE D3>
5.65

>  <DOPAMINE D4>
5.51

>  <DOPAMINE D5>
8.49

>  <HISTAMINE H1>
7

$$$$
6291
  Marvin  02231216192D 0   1.00000     0.00000     0

 26 29  0  0  1  0  0  0  0  0999 V2000
   -4.2684    3.4148    0.0000 O   0  0  0  0  0  0  0  0  0
   -4.8815    2.8628    0.0000 C   0  0  0  0  0  0  0  0  0
   -4.8815    2.0378    0.0000 C   0  0  0  0  0  0  0  0  0
   -5.5960    1.6253    0.0000 C   0  0  0  0  0  0  0  0  0
   -6.3104    2.0378    0.0000 C   0  0  0  0  0  0  0  0  0
   -6.3104    2.8628    0.0000 C   0  0  0  0  0  0  0  0  0
   -5.5960    3.2753    0.0000 C   0  0  0  0  0  0  0  0  0
   -5.4244    4.0823    0.0000 C   0  0  0  0  0  0  0  0  0
   -4.6039    4.1685    0.0000 C   0  0  0  0  0  0  0  0  0
   -5.5960    0.8003    0.0000 C   0  0  0  0  0  0  0  0  0
   -4.8815    0.3878    0.0000 C   0  0  0  0  0  0  0  0  0
   -4.8815   -0.4372    0.0000 N   0  0  0  0  0  0  0  0  0
   -4.1670   -0.8497    0.0000 C   0  0  0  0  0  0  0  0  0
   -4.1670   -1.6747    0.0000 C   0  0  0  0  0  0  0  0  0
   -4.8815   -2.0872    0.0000 C   0  0  0  0  0  0  0  0  0
   -4.8815   -2.9122    0.0000 C   0  0  0  0  0  0  0  0  0
   -4.1670   -3.3247    0.0000 C   0  0  0  0  0  0  0  0  0
   -3.4525   -2.9122    0.0000 C   0  0  0  0  0  0  0  0  0
   -3.4525   -2.0872    0.0000 C   0  0  0  0  0  0  0  0  0
   -2.7381   -1.6747    0.0000 C   0  0  0  0  0  0  0  0  0
   -2.0236   -2.0872    0.0000 C   0  0  0  0  0  0  0  0  0
   -2.0236   -2.9122    0.0000 C   0  0  0  0  0  0  0  0  0
   -2.7381   -3.3247    0.0000 C   0  0  0  0  0  0  0  0  0
   -2.7381   -4.1497    0.0000 O   0  0  0  0  0  0  0  0  0
   -2.0236   -4.5622    0.0000 C   0  0  0  0  0  0  0  0  0
   -5.5960   -0.8497    0.0000 C   0  0  0  0  0  0  0  0  0
  1  2  4  0  0  0  0
  1  9  4  0  0  0  0
  2  3  4  0  0  0  0
  2  7  4  0  0  0  0
  3  4  4  0  0  0  0
  4  5  4  0  0  0  0
  4 10  1  0  0  0  0
  5  6  4  0  0  0  0
  6  7  4  0  0  0  0
  7  8  4  0  0  0  0
  8  9  4  0  0  0  0
 10 11  1  0  0  0  0
 11 12  1  0  0  0  0
 12 13  1  0  0  0  0
 12 26  1  0  0  0  0
 13 14  1  0  0  0  0
 14 15  1  0  0  0  0
 14 19  1  0  0  0  0
 15 16  1  0  0  0  0
 16 17  1  0  0  0  0
 17 18  1  0  0  0  0
 18 19  4  0  0  0  0
 18 23  4  0  0  0  0
 19 20  4  0  0  0  0
 20 21  4  0  0  0  0
 21 22  4  0  0  0  0
 22 23  4  0  0  0  0
 23 24  1  0  0  0  0
 24 25  1  0  0  0  0
M  END
>  <Name_Molregno>
6291

>  <5-HT1A>
7.35

>  <5-HT2A>
6

>  <5-HT2C>
6

>  <Alpha-2A>
8.6

>  <Alpha-2B>
7.96

>  <Alpha-2C>
8.68

>  <DOPAMINE D4>
6.63

>  <HISTAMINE H1>
6

>  <Serotonin transporter>
8.4

$$$$
16396
  Marvin  02231216192D 0   1.00000     0.00000     0

 37 41  0  0  0  0  0  0  0  0999 V2000
    9.4469    5.2044    0.0000 O   0  0  0  0  0  0  0  0  0
    9.1920    4.4198    0.0000 N   0  0  0  0  0  0  0  0  0
    8.3670    4.4198    0.0000 C   0  0  0  0  0  0  0  0  0
    8.1121    5.2044    0.0000 N   0  0  0  0  0  0  0  0  0
    8.7795    5.6894    0.0000 C   0  0  0  0  0  0  0  0  0
    8.7795    6.5144    0.0000 C   0  0  0  0  0  0  0  0  0
    7.8821    3.7524    0.0000 C   0  0  0  0  0  0  0  0  0
    8.2176    2.9987    0.0000 C   0  0  0  0  0  0  0  0  0
    7.7327    2.3313    0.0000 C   0  0  0  0  0  0  0  0  0
    8.0683    1.5776    0.0000 C   0  0  0  0  0  0  0  0  0
    6.9122    2.4175    0.0000 C   0  0  0  0  0  0  0  0  0
    6.5767    3.1712    0.0000 C   0  0  0  0  0  0  0  0  0
    7.0616    3.8386    0.0000 C   0  0  0  0  0  0  0  0  0
    6.4273    1.7501    0.0000 C   0  0  0  0  0  0  0  0  0
    6.7629    0.9964    0.0000 C   0  0  0  0  0  0  0  0  0
    6.2779    0.3289    0.0000 C   0  0  0  0  0  0  0  0  0
    5.4575    0.4152    0.0000 C   0  0  0  0  0  0  0  0  0
    5.1219    1.1689    0.0000 C   0  0  0  0  0  0  0  0  0
    5.6068    1.8363    0.0000 C   0  0  0  0  0  0  0  0  0
    4.9725   -0.2523    0.0000 C   0  0  0  0  0  0  0  0  0
    4.1521   -0.1660    0.0000 O   0  0  0  0  0  0  0  0  0
    5.3081   -1.0059    0.0000 N   0  0  0  0  0  0  0  0  0
    4.8232   -1.6734    0.0000 C   0  0  0  0  0  0  0  0  0
    5.1587   -2.4270    0.0000 C   0  0  0  0  0  0  0  0  0
    4.6738   -3.0945    0.0000 C   0  0  0  0  0  0  0  0  0
    5.0094   -3.8482    0.0000 N   0  0  0  0  0  0  0  0  0
    5.8298   -3.9344    0.0000 C   0  0  0  0  0  0  0  0  0
    6.1654   -4.6881    0.0000 C   0  0  0  0  0  0  0  0  0
    5.6805   -5.3555    0.0000 N   0  0  0  0  0  0  0  0  0
    4.8600   -5.2693    0.0000 C   0  0  0  0  0  0  0  0  0
    4.5244   -4.5156    0.0000 C   0  0  0  0  0  0  0  0  0
    6.0160   -6.1092    0.0000 C   0  0  0  0  0  0  0  0  0
    3.8533   -3.0082    0.0000 C   0  0  0  0  0  0  0  0  0
    3.3684   -3.6757    0.0000 O   0  0  0  0  0  0  0  0  0
    2.5479   -3.5894    0.0000 C   0  0  0  0  0  0  0  0  0
    3.5178   -2.2546    0.0000 C   0  0  0  0  0  0  0  0  0
    4.0027   -1.5871    0.0000 C   0  0  0  0  0  0  0  0  0
  1  2  4  0  0  0  0
  1  5  4  0  0  0  0
  2  3  4  0  0  0  0
  3  4  4  0  0  0  0
  3  7  1  0  0  0  0
  4  5  4  0  0  0  0
  5  6  1  0  0  0  0
  7  8  4  0  0  0  0
  7 13  4  0  0  0  0
  8  9  4  0  0  0  0
  9 10  1  0  0  0  0
  9 11  4  0  0  0  0
 11 12  4  0  0  0  0
 11 14  1  0  0  0  0
 12 13  4  0  0  0  0
 14 15  4  0  0  0  0
 14 19  4  0  0  0  0
 15 16  4  0  0  0  0
 16 17  4  0  0  0  0
 17 18  4  0  0  0  0
 17 20  1  0  0  0  0
 18 19  4  0  0  0  0
 20 21  2  0  0  0  0
 20 22  1  0  0  0  0
 22 23  1  0  0  0  0
 23 24  4  0  0  0  0
 23 37  4  0  0  0  0
 24 25  4  0  0  0  0
 25 26  1  0  0  0  0
 25 33  4  0  0  0  0
 26 27  1  0  0  0  0
 26 31  1  0  0  0  0
 27 28  1  0  0  0  0
 28 29  1  0  0  0  0
 29 30  1  0  0  0  0
 29 32  1  0  0  0  0
 30 31  1  0  0  0  0
 33 34  1  0  0  0  0
 33 36  4  0  0  0  0
 34 35  1  0  0  0  0
 36 37  4  0  0  0  0
M  END
>  <Name_Molregno>
16396

>  <5-HT1A>
7.14

>  <5-HT1B>
9.05

>  <5-HT1D>
8.78

>  <5-HT1E>
5.4

>  <5-HT2A>
7.59

>  <5-HT2C>
6.99

>  <5-HT5>
5.2

>  <5-HT6>
5.27

>  <5-HT7>
5.4

>  <DOPAMINE D1>
5

>  <DOPAMINE D2>
5

>  <DOPAMINE D3>
5

>  <DOPAMINE D4>
5

>  <DOPAMINE D5>
5

>  <HISTAMINE H1>
5

>  <Muscarinic acetylcholine receptor M1>
5

>  <Muscarinic acetylcholine receptor M2>
5

>  <Muscarinic acetylcholine receptor M3>
5

>  <Muscarinic acetylcholine receptor M4>
5

>  <Muscarinic acetylcholine receptor M5>
5

$$$$
22470
  Marvin  02231216192D 0   1.00000     0.00000     0

 22 24  0  0  1  0  0  0  0  0999 V2000
    1.4966    1.5869    0.0000 O   0  0  0  0  0  0  0  0  0
    2.2110    1.1744    0.0000 C   0  0  0  0  0  0  0  0  0
    2.2110    0.3494    0.0000 C   0  0  0  0  0  0  0  0  0
    2.9255   -0.0631    0.0000 C   0  0  0  0  0  0  0  0  0
    2.9255   -0.8881    0.0000 C   0  0  0  0  0  0  0  0  0
    2.2110   -1.3006    0.0000 N   0  0  0  0  0  0  0  0  0
    1.4966   -0.8881    0.0000 C   0  0  0  0  0  0  0  0  0
    1.4966   -0.0631    0.0000 C   0  0  0  0  0  0  0  0  0
    2.2110   -2.1256    0.0000 C   0  0  0  0  0  0  0  0  0
    1.4966   -2.5381    0.0000 C   0  0  0  0  0  0  0  0  0
    1.4966   -3.3631    0.0000 C   0  0  0  0  0  0  0  0  0
    2.2110   -3.7756    0.0000 C   0  0  0  0  0  0  0  0  0
    2.2110   -4.6006    0.0000 C   0  0  0  0  0  0  0  0  0
    1.4966   -5.0131    0.0000 C   0  0  0  0  0  0  0  0  0
    0.7821   -4.6006    0.0000 C   0  0  0  0  0  0  0  0  0
    0.7821   -3.7756    0.0000 C   0  0  0  0  0  0  0  0  0
    2.9255    1.5869    0.0000 C   0  0  0  0  0  0  0  0  0
    2.9255    2.4119    0.0000 C   0  0  0  0  0  0  0  0  0
    3.6400    2.8244    0.0000 C   0  0  0  0  0  0  0  0  0
    4.3544    2.4119    0.0000 C   0  0  0  0  0  0  0  0  0
    4.3544    1.5869    0.0000 C   0  0  0  0  0  0  0  0  0
    3.6400    1.1744    0.0000 C   0  0  0  0  0  0  0  0  0
  1  2  1  0  0  0  0
  2  3  1  0  0  0  0
  2 17  1  0  0  0  0
  3  4  1  0  0  0  0
  3  8  1  0  0  0  0
  4  5  1  0  0  0  0
  5  6  1  0  0  0  0
  6  7  1  0  0  0  0
  6  9  1  0  0  0  0
  7  8  1  0  0  0  0
  9 10  1  0  0  0  0
 10 11  1  0  0  0  0
 11 12  4  0  0  0  0
 11 16  4  0  0  0  0
 12 13  4  0  0  0  0
 13 14  4  0  0  0  0
 14 15  4  0  0  0  0
 15 16  4  0  0  0  0
 17 18  4  0  0  0  0
 17 22  4  0  0  0  0
 18 19  4  0  0  0  0
 19 20  4  0  0  0  0
 20 21  4  0  0  0  0
 21 22  4  0  0  0  0
M  END
>  <Name_Molregno>
22470

>  <5-HT1A>
5.47

>  <5-HT2A>
8.13

>  <5-HT2C>
6.28

>  <5-HT6>
5.56

>  <Alpha-1A>
5.73

>  <Alpha-1B>
5.8

>  <Alpha-2A>
5.8

>  <Alpha-2C>
5.93

>  <DOPAMINE D1>
6.49

>  <DOPAMINE D4>
5.41

>  <DOPAMINE D5>
5.54

>  <Dopamine transporter>
5

>  <HISTAMINE H1>
5.79

>  <Norepinephrine transporter>
5

>  <Serotonin transporter>
5.59

$$$$
27981
  Marvin  02231216192D 0   1.00000     0.00000     0

 21 22  0  0  0  0  0  0  0  0999 V2000
   -0.0711   -0.0137    0.0000 O   0  0  0  0  0  0  0  0  0
    0.6434    0.3988    0.0000 C   0  0  0  0  0  0  0  0  0
    1.3579   -0.0137    0.0000 C   0  0  0  0  0  0  0  0  0
    2.0723    0.3988    0.0000 C   0  0  0  0  0  0  0  0  0
    2.7868   -0.0137    0.0000 N   0  0  0  0  0  0  0  0  0
    3.5013    0.3988    0.0000 C   0  0  0  0  0  0  0  0  0
    4.2158   -0.0137    0.0000 C   0  0  0  0  0  0  0  0  0
    4.9302    0.3988    0.0000 O   0  0  0  0  0  0  0  0  0
    5.6447   -0.0137    0.0000 C   0  0  0  0  0  0  0  0  0
    6.3592    0.3988    0.0000 C   0  0  0  0  0  0  0  0  0
    7.0736   -0.0137    0.0000 C   0  0  0  0  0  0  0  0  0
    7.0736   -0.8387    0.0000 C   0  0  0  0  0  0  0  0  0
    7.7881   -1.2512    0.0000 O   0  0  0  0  0  0  0  0  0
    6.3592   -1.2512    0.0000 C   0  0  0  0  0  0  0  0  0
    5.6447   -0.8387    0.0000 C   0  0  0  0  0  0  0  0  0
   -0.7855    0.3988    0.0000 C   0  0  0  0  0  0  0  0  0
   -1.5000   -0.0137    0.0000 C   0  0  0  0  0  0  0  0  0
   -2.2145    0.3988    0.0000 C   0  0  0  0  0  0  0  0  0
   -2.2145    1.2238    0.0000 C   0  0  0  0  0  0  0  0  0
   -1.5000    1.6363    0.0000 C   0  0  0  0  0  0  0  0  0
   -0.7855    1.2238    0.0000 C   0  0  0  0  0  0  0  0  0
  1  2  1  0  0  0  0
  1 16  1  0  0  0  0
  2  3  1  0  0  0  0
  3  4  1  0  0  0  0
  4  5  1  0  0  0  0
  5  6  1  0  0  0  0
  6  7  1  0  0  0  0
  7  8  1  0  0  0  0
  8  9  1  0  0  0  0
  9 10  4  0  0  0  0
  9 15  4  0  0  0  0
 10 11  4  0  0  0  0
 11 12  4  0  0  0  0
 12 13  1  0  0  0  0
 12 14  4  0  0  0  0
 14 15  4  0  0  0  0
 16 17  4  0  0  0  0
 16 21  4  0  0  0  0
 17 18  4  0  0  0  0
 18 19  4  0  0  0  0
 19 20  4  0  0  0  0
 20 21  4  0  0  0  0
M  END
>  <Name_Molregno>
27981

>  <DOPAMINE D2>
6.25

>  <DOPAMINE D3>
6.63

>  <DOPAMINE D4>
8.51

$$$$
32833
  Marvin  02231216192D 0   1.00000     0.00000     0

 17 19  0  0  1  0  0  0  0  0999 V2000
   -1.6280    0.0143    0.0000 O   0  0  0  0  0  0  0  0  0
   -2.0179   -0.7127    0.0000 C   0  0  0  0  0  0  0  0  0
   -1.5833   -1.4139    0.0000 C   0  0  0  0  0  0  0  0  0
   -0.7587   -1.3882    0.0000 C   0  0  0  0  0  0  0  0  0
   -0.3241   -2.0894    0.0000 C   0  0  0  0  0  0  0  0  0
    0.4771   -1.8928    0.0000 N   0  0  0  0  0  0  0  0  0
    0.5377   -1.0700    0.0000 C   0  0  0  0  0  0  0  0  0
   -0.2261   -0.7581    0.0000 C   0  0  0  0  0  0  0  0  0
    1.1071   -2.4254    0.0000 C   0  0  0  0  0  0  0  0  0
    1.8834   -2.1461    0.0000 C   0  0  0  0  0  0  0  0  0
    2.5134   -2.6787    0.0000 C   0  0  0  0  0  0  0  0  0
   -0.7141   -2.8164    0.0000 C   0  0  0  0  0  0  0  0  0
   -1.5387   -2.8422    0.0000 C   0  0  0  0  0  0  0  0  0
   -1.9733   -2.1409    0.0000 C   0  0  0  0  0  0  0  0  0
   -2.7979   -2.1667    0.0000 C   0  0  0  0  0  0  0  0  0
   -3.2325   -1.4654    0.0000 C   0  0  0  0  0  0  0  0  0
   -2.8425   -0.7384    0.0000 C   0  0  0  0  0  0  0  0  0
  1  2  1  0  0  0  0
  2  3  4  0  0  0  0
  2 17  4  0  0  0  0
  3  4  1  0  0  0  0
  3 14  4  0  0  0  0
  4  5  1  0  0  0  0
  4  8  1  0  0  0  0
  5  6  1  0  0  0  0
  5 12  1  0  0  0  0
  6  7  1  0  0  0  0
  6  9  1  0  0  0  0
  7  8  1  0  0  0  0
  9 10  1  0  0  0  0
 10 11  1  0  0  0  0
 12 13  1  0  0  0  0
 13 14  1  0  0  0  0
 14 15  4  0  0  0  0
 15 16  4  0  0  0  0
 16 17  4  0  0  0  0
M  END
>  <Name_Molregno>
32833

>  <5-HT1A>
9.7

>  <5-HT2A>
5.79

>  <5-HT2C>
5.79

>  <DOPAMINE D3>
5.32

>  <DOPAMINE D4>
5.39

$$$$
33681
  Marvin  02231216192D 0   1.00000     0.00000     0

 20 21  0  0  1  0  0  0  0  0999 V2000
   -1.5022   -1.5972    0.0000 O   0  0  0  0  0  0  0  0  0
   -1.5022   -2.4222    0.0000 C   0  0  0  0  0  0  0  0  0
   -2.2166   -1.1847    0.0000 C   0  0  0  0  0  0  0  0  0
   -2.2166   -0.3597    0.0000 C   0  0  0  0  0  0  0  0  0
   -2.9311    0.0528    0.0000 C   0  0  0  0  0  0  0  0  0
   -3.6456   -0.3597    0.0000 C   0  0  0  0  0  0  0  0  0
   -3.6456   -1.1847    0.0000 C   0  0  0  0  0  0  0  0  0
   -2.9311   -1.5972    0.0000 C   0  0  0  0  0  0  0  0  0
   -2.9311    0.8778    0.0000 C   0  0  0  0  0  0  0  0  0
   -3.6456    1.2903    0.0000 C   0  0  0  0  0  0  0  0  0
   -2.2166    1.2903    0.0000 C   0  0  0  0  0  0  0  0  0
   -2.2166    2.1153    0.0000 N   0  0  0  0  0  0  0  0  0
   -2.9311    2.5278    0.0000 C   0  0  0  0  0  0  0  0  0
   -2.9311    3.3528    0.0000 C   0  0  0  0  0  0  0  0  0
   -3.6456    3.7653    0.0000 C   0  0  0  0  0  0  0  0  0
   -1.5022    2.5278    0.0000 C   0  0  0  0  0  0  0  0  0
   -1.5022    3.3528    0.0000 C   0  0  0  0  0  0  0  0  0
   -0.7877    3.7653    0.0000 C   0  0  0  0  0  0  0  0  0
   -1.5022    0.8778    0.0000 C   0  0  0  0  0  0  0  0  0
   -1.5022    0.0528    0.0000 C   0  0  0  0  0  0  0  0  0
  1  2  1  0  0  0  0
  1  3  1  0  0  0  0
  3  4  4  0  0  0  0
  3  8  4  0  0  0  0
  4  5  4  0  0  0  0
  4 20  1  0  0  0  0
  5  6  4  0  0  0  0
  5  9  1  0  0  0  0
  6  7  4  0  0  0  0
  7  8  4  0  0  0  0
  9 10  1  0  0  0  0
  9 11  1  0  0  0  0
 11 12  1  0  0  0  0
 11 19  1  0  0  0  0
 12 13  1  0  0  0  0
 12 16  1  0  0  0  0
 13 14  1  0  0  0  0
 14 15  1  0  0  0  0
 16 17  1  0  0  0  0
 17 18  1  0  0  0  0
 19 20  1  0  0  0  0
M  END
>  <Name_Molregno>
33681

>  <5-HT1A>
6.77

>  <DOPAMINE D3>
8.39

>  <DOPAMINE D4>
7.32

$$$$
33870
  Marvin  02231216192D 0   1.00000     0.00000     0

 31 34  0  0  0  0  0  0  0  0999 V2000
   -7.8766   -2.2666    0.0000 O   0  0  0  0  0  0  0  0  0
   -7.8766   -3.0916    0.0000 C   0  0  0  0  0  0  0  0  0
   -8.5911   -1.8541    0.0000 C   0  0  0  0  0  0  0  0  0
   -9.3056   -2.2666    0.0000 C   0  0  0  0  0  0  0  0  0
  -10.0200   -1.8541    0.0000 C   0  0  0  0  0  0  0  0  0
  -10.0200   -1.0291    0.0000 C   0  0  0  0  0  0  0  0  0
   -9.3056   -0.6166    0.0000 C   0  0  0  0  0  0  0  0  0
   -8.5911   -1.0291    0.0000 C   0  0  0  0  0  0  0  0  0
   -7.8766   -0.6166    0.0000 N   0  0  0  0  0  0  0  0  0
   -7.8766    0.2084    0.0000 C   0  0  0  0  0  0  0  0  0
   -7.1621    0.6209    0.0000 C   0  0  0  0  0  0  0  0  0
   -6.4477    0.2084    0.0000 N   0  0  0  0  0  0  0  0  0
   -6.4477   -0.6166    0.0000 C   0  0  0  0  0  0  0  0  0
   -7.1621   -1.0291    0.0000 C   0  0  0  0  0  0  0  0  0
   -5.7332    0.6209    0.0000 C   0  0  0  0  0  0  0  0  0
   -5.0187    0.2084    0.0000 C   0  0  0  0  0  0  0  0  0
   -4.3043    0.6209    0.0000 C   0  0  0  0  0  0  0  0  0
   -3.5898    0.2084    0.0000 C   0  0  0  0  0  0  0  0  0
   -2.8753    0.6209    0.0000 N   0  0  0  0  0  0  0  0  0
   -2.1608    0.2084    0.0000 C   0  0  0  0  0  0  0  0  0
   -2.1608   -0.6166    0.0000 O   0  0  0  0  0  0  0  0  0
   -1.4464    0.6209    0.0000 C   0  0  0  0  0  0  0  0  0
   -0.7319    0.2084    0.0000 C   0  0  0  0  0  0  0  0  0
   -0.0174    0.6209    0.0000 C   0  0  0  0  0  0  0  0  0
   -0.0174    1.4459    0.0000 C   0  0  0  0  0  0  0  0  0
   -0.7319    1.8584    0.0000 C   0  0  0  0  0  0  0  0  0
   -1.4464    1.4459    0.0000 C   0  0  0  0  0  0  0  0  0
    0.6970    1.8584    0.0000 C   0  0  0  0  0  0  0  0  0
    1.4115    1.4459    0.0000 C   0  0  0  0  0  0  0  0  0
    1.4115    0.6209    0.0000 C   0  0  0  0  0  0  0  0  0
    0.6970    0.2084    0.0000 C   0  0  0  0  0  0  0  0  0
  1  2  1  0  0  0  0
  1  3  1  0  0  0  0
  3  4  4  0  0  0  0
  3  8  4  0  0  0  0
  4  5  4  0  0  0  0
  5  6  4  0  0  0  0
  6  7  4  0  0  0  0
  7  8  4  0  0  0  0
  8  9  1  0  0  0  0
  9 10  1  0  0  0  0
  9 14  1  0  0  0  0
 10 11  1  0  0  0  0
 11 12  1  0  0  0  0
 12 13  1  0  0  0  0
 12 15  1  0  0  0  0
 13 14  1  0  0  0  0
 15 16  1  0  0  0  0
 16 17  1  0  0  0  0
 17 18  1  0  0  0  0
 18 19  1  0  0  0  0
 19 20  1  0  0  0  0
 20 21  2  0  0  0  0
 20 22  1  0  0  0  0
 22 23  4  0  0  0  0
 22 27  4  0  0  0  0
 23 24  4  0  0  0  0
 24 25  4  0  0  0  0
 24 31  4  0  0  0  0
 25 26  4  0  0  0  0
 25 28  4  0  0  0  0
 26 27  4  0  0  0  0
 28 29  4  0  0  0  0
 29 30  4  0  0  0  0
 30 31  4  0  0  0  0
M  END
>  <Name_Molregno>
33870

>  <5-HT1A>
6.93

>  <Alpha-2A>
8.56

>  <DOPAMINE D1>
6.12

>  <DOPAMINE D2>
6.85

>  <DOPAMINE D3>
8.86

>  <DOPAMINE D4>
7.1

$$$$
34600
  Marvin  02231216192D 0   1.00000     0.00000     0

 17 18  0  0  1  0  0  0  0  0999 V2000
   -3.2070   -1.2366    0.0000 O   0  0  0  0  0  0  0  0  0
   -3.9215   -1.6491    0.0000 C   0  0  0  0  0  0  0  0  0
   -3.2070   -0.4116    0.0000 C   0  0  0  0  0  0  0  0  0
   -2.4926    0.0009    0.0000 C   0  0  0  0  0  0  0  0  0
   -2.4926    0.8259    0.0000 C   0  0  0  0  0  0  0  0  0
   -3.2070    1.2384    0.0000 C   0  0  0  0  0  0  0  0  0
   -3.9215    0.8259    0.0000 C   0  0  0  0  0  0  0  0  0
   -3.9215    0.0009    0.0000 C   0  0  0  0  0  0  0  0  0
   -1.7781    1.2384    0.0000 C   0  0  0  0  0  0  0  0  0
   -1.7781    2.0634    0.0000 C   0  0  0  0  0  0  0  0  0
   -1.0636    0.8259    0.0000 C   0  0  0  0  0  0  0  0  0
   -0.3491    1.2384    0.0000 N   0  0  0  0  0  0  0  0  0
   -0.3491    2.0634    0.0000 C   0  0  0  0  0  0  0  0  0
    0.3653    2.4759    0.0000 C   0  0  0  0  0  0  0  0  0
    0.3653    3.3009    0.0000 C   0  0  0  0  0  0  0  0  0
   -1.0636    0.0009    0.0000 C   0  0  0  0  0  0  0  0  0
   -1.7781   -0.4116    0.0000 C   0  0  0  0  0  0  0  0  0
  1  2  1  0  0  0  0
  1  3  1  0  0  0  0
  3  4  4  0  0  0  0
  3  8  4  0  0  0  0
  4  5  4  0  0  0  0
  4 17  1  0  0  0  0
  5  6  4  0  0  0  0
  5  9  1  0  0  0  0
  6  7  4  0  0  0  0
  7  8  4  0  0  0  0
  9 10  1  0  0  0  0
  9 11  1  0  0  0  0
 11 12  1  0  0  0  0
 11 16  1  0  0  0  0
 12 13  1  0  0  0  0
 13 14  1  0  0  0  0
 14 15  1  0  0  0  0
 16 17  1  0  0  0  0
M  END
>  <Name_Molregno>
34600

>  <DOPAMINE D2>
6.92

>  <DOPAMINE D3>
7.37

>  <DOPAMINE D4>
6.9

$$$$
35034
  Marvin  02231216192D 0   1.00000     0.00000     0

 27 29  0  0  0  0  0  0  0  0999 V2000
   -7.1027    0.0137    0.0000 O   0  0  0  0  0  0  0  0  0
   -7.8171   -0.3988    0.0000 C   0  0  0  0  0  0  0  0  0
   -7.1027    0.8387    0.0000 C   0  0  0  0  0  0  0  0  0
   -7.8171    1.2512    0.0000 C   0  0  0  0  0  0  0  0  0
   -7.8171    2.0762    0.0000 C   0  0  0  0  0  0  0  0  0
   -7.1027    2.4887    0.0000 C   0  0  0  0  0  0  0  0  0
   -6.3882    2.0762    0.0000 C   0  0  0  0  0  0  0  0  0
   -6.3882    1.2512    0.0000 C   0  0  0  0  0  0  0  0  0
   -5.6737    0.8387    0.0000 N   0  0  0  0  0  0  0  0  0
   -4.9593    1.2512    0.0000 C   0  0  0  0  0  0  0  0  0
   -4.2448    0.8387    0.0000 C   0  0  0  0  0  0  0  0  0
   -4.2448    0.0137    0.0000 N   0  0  0  0  0  0  0  0  0
   -4.9593   -0.3988    0.0000 C   0  0  0  0  0  0  0  0  0
   -5.6737    0.0137    0.0000 C   0  0  0  0  0  0  0  0  0
   -3.5303   -0.3988    0.0000 C   0  0  0  0  0  0  0  0  0
   -2.8158    0.0137    0.0000 C   0  0  0  0  0  0  0  0  0
   -2.1014   -0.3988    0.0000 N   0  0  0  0  0  0  0  0  0
   -1.3869    0.0137    0.0000 C   0  0  0  0  0  0  0  0  0
   -1.3869    0.8387    0.0000 O   0  0  0  0  0  0  0  0  0
   -0.6724   -0.3988    0.0000 C   0  0  0  0  0  0  0  0  0
    0.0420    0.0137    0.0000 C   0  0  0  0  0  0  0  0  0
    0.7565   -0.3988    0.0000 C   0  0  0  0  0  0  0  0  0
    1.4710    0.0137    0.0000 O   0  0  0  0  0  0  0  0  0
    2.1855   -0.3988    0.0000 C   0  0  0  0  0  0  0  0  0
    0.7565   -1.2238    0.0000 C   0  0  0  0  0  0  0  0  0
    0.0420   -1.6363    0.0000 C   0  0  0  0  0  0  0  0  0
   -0.6724   -1.2238    0.0000 C   0  0  0  0  0  0  0  0  0
  1  2  1  0  0  0  0
  1  3  1  0  0  0  0
  3  4  4  0  0  0  0
  3  8  4  0  0  0  0
  4  5  4  0  0  0  0
  5  6  4  0  0  0  0
  6  7  4  0  0  0  0
  7  8  4  0  0  0  0
  8  9  1  0  0  0  0
  9 10  1  0  0  0  0
  9 14  1  0  0  0  0
 10 11  1  0  0  0  0
 11 12  1  0  0  0  0
 12 13  1  0  0  0  0
 12 15  1  0  0  0  0
 13 14  1  0  0  0  0
 15 16  1  0  0  0  0
 16 17  1  0  0  0  0
 17 18  1  0  0  0  0
 18 19  2  0  0  0  0
 18 20  1  0  0  0  0
 20 21  4  0  0  0  0
 20 27  4  0  0  0  0
 21 22  4  0  0  0  0
 22 23  1  0  0  0  0
 22 25  4  0  0  0  0
 23 24  1  0  0  0  0
 25 26  4  0  0  0  0
 26 27  4  0  0  0  0
M  END
>  <Name_Molregno>
35034

>  <DOPAMINE D4>
8.89

$$$$
35038
  Marvin  02231216192D 0   1.00000     0.00000     0

 29 31  0  0  0  0  0  0  0  0999 V2000
   -0.7406   -0.6558    0.0000 Cl  0  0  0  0  0  0  0  0  0
   -0.0261   -1.0683    0.0000 C   0  0  0  0  0  0  0  0  0
    0.6884   -0.6558    0.0000 C   0  0  0  0  0  0  0  0  0
    1.4028   -1.0683    0.0000 C   0  0  0  0  0  0  0  0  0
    2.1173   -0.6558    0.0000 C   0  0  0  0  0  0  0  0  0
    2.1173    0.1692    0.0000 O   0  0  0  0  0  0  0  0  0
    2.8318   -1.0683    0.0000 N   0  0  0  0  0  0  0  0  0
    3.5463   -0.6558    0.0000 C   0  0  0  0  0  0  0  0  0
    4.2607   -1.0683    0.0000 C   0  0  0  0  0  0  0  0  0
    4.9752   -0.6558    0.0000 N   0  0  0  0  0  0  0  0  0
    4.9752    0.1692    0.0000 C   0  0  0  0  0  0  0  0  0
    5.6897    0.5817    0.0000 C   0  0  0  0  0  0  0  0  0
    6.4041    0.1692    0.0000 N   0  0  0  0  0  0  0  0  0
    6.4041   -0.6558    0.0000 C   0  0  0  0  0  0  0  0  0
    5.6897   -1.0683    0.0000 C   0  0  0  0  0  0  0  0  0
    7.1186    0.5817    0.0000 C   0  0  0  0  0  0  0  0  0
    7.1186    1.4067    0.0000 C   0  0  0  0  0  0  0  0  0
    7.8331    1.8192    0.0000 C   0  0  0  0  0  0  0  0  0
    8.5475    1.4067    0.0000 C   0  0  0  0  0  0  0  0  0
    8.5475    0.5817    0.0000 C   0  0  0  0  0  0  0  0  0
    7.8331    0.1692    0.0000 C   0  0  0  0  0  0  0  0  0
    7.8331   -0.6558    0.0000 O   0  0  0  0  0  0  0  0  0
    8.5475   -1.0683    0.0000 C   0  0  0  0  0  0  0  0  0
    1.4028   -1.8933    0.0000 C   0  0  0  0  0  0  0  0  0
    2.1173   -2.3058    0.0000 O   0  0  0  0  0  0  0  0  0
    2.1173   -3.1308    0.0000 C   0  0  0  0  0  0  0  0  0
    0.6884   -2.3058    0.0000 C   0  0  0  0  0  0  0  0  0
   -0.0261   -1.8933    0.0000 C   0  0  0  0  0  0  0  0  0
   -0.7406   -2.3058    0.0000 N   0  0  0  0  0  0  0  0  0
  1  2  1  0  0  0  0
  2  3  4  0  0  0  0
  2 28  4  0  0  0  0
  3  4  4  0  0  0  0
  4  5  1  0  0  0  0
  4 24  4  0  0  0  0
  5  6  2  0  0  0  0
  5  7  1  0  0  0  0
  7  8  1  0  0  0  0
  8  9  1  0  0  0  0
  9 10  1  0  0  0  0
 10 11  1  0  0  0  0
 10 15  1  0  0  0  0
 11 12  1  0  0  0  0
 12 13  1  0  0  0  0
 13 14  1  0  0  0  0
 13 16  1  0  0  0  0
 14 15  1  0  0  0  0
 16 17  4  0  0  0  0
 16 21  4  0  0  0  0
 17 18  4  0  0  0  0
 18 19  4  0  0  0  0
 19 20  4  0  0  0  0
 20 21  4  0  0  0  0
 21 22  1  0  0  0  0
 22 23  1  0  0  0  0
 24 25  1  0  0  0  0
 24 27  4  0  0  0  0
 25 26  1  0  0  0  0
 27 28  4  0  0  0  0
 28 29  1  0  0  0  0
M  END
>  <Name_Molregno>
35038

>  <DOPAMINE D4>
7.72

$$$$
35324
  Marvin  02231216192D 0   1.00000     0.00000     0

 18 19  0  0  1  0  0  0  0  0999 V2000
    0.9450   -1.8585    0.0000 O   0  0  0  0  0  0  0  0  0
    0.5325   -1.1440    0.0000 C   0  0  0  0  0  0  0  0  0
   -0.2925   -1.1440    0.0000 C   0  0  0  0  0  0  0  0  0
   -0.7050   -1.8585    0.0000 C   0  0  0  0  0  0  0  0  0
   -1.5300   -1.8585    0.0000 C   0  0  0  0  0  0  0  0  0
   -1.9425   -2.5729    0.0000 N   0  0  0  0  0  0  0  0  0
   -2.7675   -2.5729    0.0000 C   0  0  0  0  0  0  0  0  0
   -3.1800   -3.2874    0.0000 C   0  0  0  0  0  0  0  0  0
   -4.0050   -3.2874    0.0000 C   0  0  0  0  0  0  0  0  0
   -1.5300   -3.2874    0.0000 C   0  0  0  0  0  0  0  0  0
   -0.7050   -3.2874    0.0000 C   0  0  0  0  0  0  0  0  0
   -0.2925   -4.0019    0.0000 C   0  0  0  0  0  0  0  0  0
   -1.9425   -1.1440    0.0000 C   0  0  0  0  0  0  0  0  0
   -1.5300   -0.4295    0.0000 C   0  0  0  0  0  0  0  0  0
   -0.7050   -0.4295    0.0000 C   0  0  0  0  0  0  0  0  0
   -0.2925    0.2849    0.0000 C   0  0  0  0  0  0  0  0  0
    0.5325    0.2849    0.0000 C   0  0  0  0  0  0  0  0  0
    0.9450   -0.4295    0.0000 C   0  0  0  0  0  0  0  0  0
  1  2  1  0  0  0  0
  2  3  4  0  0  0  0
  2 18  4  0  0  0  0
  3  4  1  0  0  0  0
  3 15  4  0  0  0  0
  4  5  1  0  0  0  0
  5  6  1  0  0  0  0
  5 13  1  0  0  0  0
  6  7  1  0  0  0  0
  6 10  1  0  0  0  0
  7  8  1  0  0  0  0
  8  9  1  0  0  0  0
 10 11  1  0  0  0  0
 11 12  1  0  0  0  0
 13 14  1  0  0  0  0
 14 15  1  0  0  0  0
 15 16  4  0  0  0  0
 16 17  4  0  0  0  0
 17 18  4  0  0  0  0
M  END
>  <Name_Molregno>
35324

>  <5-HT1A>
8.41

>  <5-HT1B>
6.44

>  <5-HT1D>
6.48

>  <5-HT1E>
5.78

>  <5-HT2A>
5.34

>  <5-HT2C>
5.46

>  <5-HT5>
5.6

>  <5-HT6>
5

>  <5-HT7>
6.52

>  <Alpha-1A>
6.21

>  <Alpha-1B>
6

>  <DOPAMINE D1>
5

>  <DOPAMINE D2>
6.1

>  <DOPAMINE D3>
6.35

>  <DOPAMINE D4>
5.38

$$$$
35374
  Marvin  02231216192D 0   1.00000     0.00000     0

 29 32  0  0  1  0  0  0  0  0999 V2000
   -6.6773    1.4684    0.0000 O   0  0  0  0  0  0  0  0  0
   -7.3918    1.0559    0.0000 C   0  0  0  0  0  0  0  0  0
   -6.6773    2.2934    0.0000 C   0  0  0  0  0  0  0  0  0
   -7.3918    2.7059    0.0000 C   0  0  0  0  0  0  0  0  0
   -7.3918    3.5309    0.0000 C   0  0  0  0  0  0  0  0  0
   -6.6773    3.9434    0.0000 C   0  0  0  0  0  0  0  0  0
   -5.9628    3.5309    0.0000 C   0  0  0  0  0  0  0  0  0
   -5.9628    2.7059    0.0000 C   0  0  0  0  0  0  0  0  0
   -5.2484    2.2934    0.0000 N   0  0  0  0  0  0  0  0  0
   -4.5339    2.7059    0.0000 C   0  0  0  0  0  0  0  0  0
   -3.8194    2.2934    0.0000 C   0  0  0  0  0  0  0  0  0
   -3.8194    1.4684    0.0000 N   0  0  0  0  0  0  0  0  0
   -4.5339    1.0559    0.0000 C   0  0  0  0  0  0  0  0  0
   -5.2484    1.4684    0.0000 C   0  0  0  0  0  0  0  0  0
   -3.1049    1.0559    0.0000 C   0  0  0  0  0  0  0  0  0
   -3.1049    0.2309    0.0000 C   0  0  0  0  0  0  0  0  0
   -2.3905   -0.1816    0.0000 C   0  0  0  0  0  0  0  0  0
   -2.3905   -1.0066    0.0000 C   0  0  0  0  0  0  0  0  0
   -3.1049   -1.4191    0.0000 C   0  0  0  0  0  0  0  0  0
   -3.1049   -2.2441    0.0000 C   0  0  0  0  0  0  0  0  0
   -2.3905   -2.6566    0.0000 C   0  0  0  0  0  0  0  0  0
   -1.6760   -2.2441    0.0000 C   0  0  0  0  0  0  0  0  0
   -1.6760   -1.4191    0.0000 C   0  0  0  0  0  0  0  0  0
   -0.9615   -1.0066    0.0000 C   0  0  0  0  0  0  0  0  0
   -0.2471   -1.4191    0.0000 C   0  0  0  0  0  0  0  0  0
   -0.2471   -2.2441    0.0000 C   0  0  0  0  0  0  0  0  0
   -0.9615   -2.6566    0.0000 C   0  0  0  0  0  0  0  0  0
   -0.9615   -3.4816    0.0000 O   0  0  0  0  0  0  0  0  0
   -0.2471   -3.8941    0.0000 C   0  0  0  0  0  0  0  0  0
  1  2  1  0  0  0  0
  1  3  1  0  0  0  0
  3  4  4  0  0  0  0
  3  8  4  0  0  0  0
  4  5  4  0  0  0  0
  5  6  4  0  0  0  0
  6  7  4  0  0  0  0
  7  8  4  0  0  0  0
  8  9  1  0  0  0  0
  9 10  1  0  0  0  0
  9 14  1  0  0  0  0
 10 11  1  0  0  0  0
 11 12  1  0  0  0  0
 12 13  1  0  0  0  0
 12 15  1  0  0  0  0
 13 14  1  0  0  0  0
 15 16  1  0  0  0  0
 16 17  1  0  0  0  0
 17 18  1  0  0  0  0
 18 19  1  0  0  0  0
 18 23  1  0  0  0  0
 19 20  1  0  0  0  0
 20 21  1  0  0  0  0
 21 22  1  0  0  0  0
 22 23  4  0  0  0  0
 22 27  4  0  0  0  0
 23 24  4  0  0  0  0
 24 25  4  0  0  0  0
 25 26  4  0  0  0  0
 26 27  4  0  0  0  0
 27 28  1  0  0  0  0
 28 29  1  0  0  0  0
M  END
>  <Name_Molregno>
35374

>  <DOPAMINE D4>
7.43

$$$$
35499
  Marvin  02231216192D 0   1.00000     0.00000     0

 31 34  0  0  1  0  0  0  0  0999 V2000
   -6.4796    3.1699    0.0000 O   0  0  0  0  0  0  0  0  0
   -7.1941    3.5824    0.0000 C   0  0  0  0  0  0  0  0  0
   -5.7651    3.5824    0.0000 C   0  0  0  0  0  0  0  0  0
   -5.7651    4.4074    0.0000 C   0  0  0  0  0  0  0  0  0
   -5.0506    4.8199    0.0000 C   0  0  0  0  0  0  0  0  0
   -4.3362    4.4074    0.0000 C   0  0  0  0  0  0  0  0  0
   -4.3362    3.5824    0.0000 C   0  0  0  0  0  0  0  0  0
   -5.0506    3.1699    0.0000 C   0  0  0  0  0  0  0  0  0
   -5.0506    2.3449    0.0000 N   0  0  0  0  0  0  0  0  0
   -4.3362    1.9324    0.0000 C   0  0  0  0  0  0  0  0  0
   -4.3362    1.1074    0.0000 C   0  0  0  0  0  0  0  0  0
   -5.0506    0.6949    0.0000 N   0  0  0  0  0  0  0  0  0
   -5.7651    1.1074    0.0000 C   0  0  0  0  0  0  0  0  0
   -5.7651    1.9324    0.0000 C   0  0  0  0  0  0  0  0  0
   -5.0506   -0.1301    0.0000 C   0  0  0  0  0  0  0  0  0
   -4.3362   -0.5426    0.0000 C   0  0  0  0  0  0  0  0  0
   -4.3362   -1.3676    0.0000 N   0  0  0  0  0  0  0  0  0
   -3.6217   -1.7801    0.0000 C   0  0  0  0  0  0  0  0  0
   -2.9072   -1.3676    0.0000 O   0  0  0  0  0  0  0  0  0
   -3.6217   -2.6051    0.0000 C   0  0  0  0  0  0  0  0  0
   -4.3362   -3.0176    0.0000 C   0  0  0  0  0  0  0  0  0
   -4.3362   -3.8426    0.0000 C   0  0  0  0  0  0  0  0  0
   -3.6217   -4.2551    0.0000 C   0  0  0  0  0  0  0  0  0
   -2.9072   -3.8426    0.0000 C   0  0  0  0  0  0  0  0  0
   -2.9072   -3.0176    0.0000 C   0  0  0  0  0  0  0  0  0
   -2.1928   -2.6051    0.0000 C   0  0  0  0  0  0  0  0  0
   -1.4783   -3.0176    0.0000 C   0  0  0  0  0  0  0  0  0
   -1.4783   -3.8426    0.0000 C   0  0  0  0  0  0  0  0  0
   -2.1928   -4.2551    0.0000 C   0  0  0  0  0  0  0  0  0
   -2.1928   -5.0801    0.0000 O   0  0  0  0  0  0  0  0  0
   -1.4783   -5.4926    0.0000 C   0  0  0  0  0  0  0  0  0
  1  2  1  0  0  0  0
  1  3  1  0  0  0  0
  3  4  4  0  0  0  0
  3  8  4  0  0  0  0
  4  5  4  0  0  0  0
  5  6  4  0  0  0  0
  6  7  4  0  0  0  0
  7  8  4  0  0  0  0
  8  9  1  0  0  0  0
  9 10  1  0  0  0  0
  9 14  1  0  0  0  0
 10 11  1  0  0  0  0
 11 12  1  0  0  0  0
 12 13  1  0  0  0  0
 12 15  1  0  0  0  0
 13 14  1  0  0  0  0
 15 16  1  0  0  0  0
 16 17  1  0  0  0  0
 17 18  1  0  0  0  0
 18 19  2  0  0  0  0
 18 20  1  0  0  0  0
 20 21  1  0  0  0  0
 20 25  1  0  0  0  0
 21 22  1  0  0  0  0
 22 23  1  0  0  0  0
 23 24  1  0  0  0  0
 24 25  4  0  0  0  0
 24 29  4  0  0  0  0
 25 26  4  0  0  0  0
 26 27  4  0  0  0  0
 27 28  4  0  0  0  0
 28 29  4  0  0  0  0
 29 30  1  0  0  0  0
 30 31  1  0  0  0  0
M  END
>  <Name_Molregno>
35499

>  <DOPAMINE D4>
7.66

$$$$
35529
  Marvin  02231216192D 0   1.00000     0.00000     0

 30 33  0  0  1  0  0  0  0  0999 V2000
   -6.3952    3.7194    0.0000 O   0  0  0  0  0  0  0  0  0
   -7.1097    4.1319    0.0000 C   0  0  0  0  0  0  0  0  0
   -5.6807    4.1319    0.0000 C   0  0  0  0  0  0  0  0  0
   -5.6807    4.9569    0.0000 C   0  0  0  0  0  0  0  0  0
   -4.9662    5.3694    0.0000 C   0  0  0  0  0  0  0  0  0
   -4.2518    4.9569    0.0000 C   0  0  0  0  0  0  0  0  0
   -4.2518    4.1319    0.0000 C   0  0  0  0  0  0  0  0  0
   -4.9662    3.7194    0.0000 C   0  0  0  0  0  0  0  0  0
   -4.9662    2.8944    0.0000 N   0  0  0  0  0  0  0  0  0
   -4.2518    2.4819    0.0000 C   0  0  0  0  0  0  0  0  0
   -4.2518    1.6569    0.0000 C   0  0  0  0  0  0  0  0  0
   -4.9662    1.2444    0.0000 N   0  0  0  0  0  0  0  0  0
   -5.6807    1.6569    0.0000 C   0  0  0  0  0  0  0  0  0
   -5.6807    2.4819    0.0000 C   0  0  0  0  0  0  0  0  0
   -4.9662    0.4194    0.0000 C   0  0  0  0  0  0  0  0  0
   -4.2518    0.0069    0.0000 C   0  0  0  0  0  0  0  0  0
   -4.2518   -0.8181    0.0000 C   0  0  0  0  0  0  0  0  0
   -3.5373   -1.2306    0.0000 C   0  0  0  0  0  0  0  0  0
   -3.5373   -2.0556    0.0000 C   0  0  0  0  0  0  0  0  0
   -4.2518   -2.4681    0.0000 C   0  0  0  0  0  0  0  0  0
   -4.2518   -3.2931    0.0000 C   0  0  0  0  0  0  0  0  0
   -3.5373   -3.7056    0.0000 C   0  0  0  0  0  0  0  0  0
   -2.8228   -3.2931    0.0000 C   0  0  0  0  0  0  0  0  0
   -2.8228   -2.4681    0.0000 C   0  0  0  0  0  0  0  0  0
   -2.1084   -2.0556    0.0000 C   0  0  0  0  0  0  0  0  0
   -1.3939   -2.4681    0.0000 C   0  0  0  0  0  0  0  0  0
   -1.3939   -3.2931    0.0000 C   0  0  0  0  0  0  0  0  0
   -2.1084   -3.7056    0.0000 C   0  0  0  0  0  0  0  0  0
   -2.1084   -4.5306    0.0000 O   0  0  0  0  0  0  0  0  0
   -1.3939   -4.9431    0.0000 C   0  0  0  0  0  0  0  0  0
  1  2  1  0  0  0  0
  1  3  1  0  0  0  0
  3  4  4  0  0  0  0
  3  8  4  0  0  0  0
  4  5  4  0  0  0  0
  5  6  4  0  0  0  0
  6  7  4  0  0  0  0
  7  8  4  0  0  0  0
  8  9  1  0  0  0  0
  9 10  1  0  0  0  0
  9 14  1  0  0  0  0
 10 11  1  0  0  0  0
 11 12  1  0  0  0  0
 12 13  1  0  0  0  0
 12 15  1  0  0  0  0
 13 14  1  0  0  0  0
 15 16  1  0  0  0  0
 16 17  1  0  0  0  0
 17 18  1  0  0  0  0
 18 19  1  0  0  0  0
 19 20  1  0  0  0  0
 19 24  1  0  0  0  0
 20 21  1  0  0  0  0
 21 22  1  0  0  0  0
 22 23  1  0  0  0  0
 23 24  4  0  0  0  0
 23 28  4  0  0  0  0
 24 25  4  0  0  0  0
 25 26  4  0  0  0  0
 26 27  4  0  0  0  0
 27 28  4  0  0  0  0
 28 29  1  0  0  0  0
 29 30  1  0  0  0  0
M  END
>  <Name_Molregno>
35529

>  <DOPAMINE D4>
7.37

$$$$
35530
  Marvin  02231216192D 0   1.00000     0.00000     0

 32 35  0  0  1  0  0  0  0  0999 V2000
   -8.6390   -0.1848    0.0000 O   0  0  0  0  0  0  0  0  0
   -9.3535   -0.5973    0.0000 C   0  0  0  0  0  0  0  0  0
   -8.6390    0.6402    0.0000 C   0  0  0  0  0  0  0  0  0
   -9.3535    1.0527    0.0000 C   0  0  0  0  0  0  0  0  0
   -9.3535    1.8777    0.0000 C   0  0  0  0  0  0  0  0  0
   -8.6390    2.2902    0.0000 C   0  0  0  0  0  0  0  0  0
   -7.9245    1.8777    0.0000 C   0  0  0  0  0  0  0  0  0
   -7.9245    1.0527    0.0000 C   0  0  0  0  0  0  0  0  0
   -7.2101    0.6402    0.0000 N   0  0  0  0  0  0  0  0  0
   -6.4956    1.0527    0.0000 C   0  0  0  0  0  0  0  0  0
   -5.7811    0.6402    0.0000 C   0  0  0  0  0  0  0  0  0
   -5.7811   -0.1848    0.0000 N   0  0  0  0  0  0  0  0  0
   -6.4956   -0.5973    0.0000 C   0  0  0  0  0  0  0  0  0
   -7.2101   -0.1848    0.0000 C   0  0  0  0  0  0  0  0  0
   -5.0667   -0.5973    0.0000 C   0  0  0  0  0  0  0  0  0
   -4.3522   -0.1848    0.0000 C   0  0  0  0  0  0  0  0  0
   -3.6377   -0.5973    0.0000 C   0  0  0  0  0  0  0  0  0
   -2.9232   -0.1848    0.0000 N   0  0  0  0  0  0  0  0  0
   -2.2088   -0.5973    0.0000 C   0  0  0  0  0  0  0  0  0
   -2.2088   -1.4223    0.0000 O   0  0  0  0  0  0  0  0  0
   -1.4943   -0.1848    0.0000 C   0  0  0  0  0  0  0  0  0
   -0.7798   -0.5973    0.0000 C   0  0  0  0  0  0  0  0  0
   -0.0654   -0.1848    0.0000 C   0  0  0  0  0  0  0  0  0
   -0.0654    0.6402    0.0000 C   0  0  0  0  0  0  0  0  0
   -0.7798    1.0527    0.0000 C   0  0  0  0  0  0  0  0  0
   -1.4943    0.6402    0.0000 C   0  0  0  0  0  0  0  0  0
    0.6491   -0.5973    0.0000 C   0  0  0  0  0  0  0  0  0
    0.6491   -1.4223    0.0000 C   0  0  0  0  0  0  0  0  0
   -0.0654   -1.8348    0.0000 C   0  0  0  0  0  0  0  0  0
   -0.7798   -1.4223    0.0000 C   0  0  0  0  0  0  0  0  0
   -1.4943   -1.8348    0.0000 O   0  0  0  0  0  0  0  0  0
   -1.4943   -2.6598    0.0000 C   0  0  0  0  0  0  0  0  0
  1  2  1  0  0  0  0
  1  3  1  0  0  0  0
  3  4  4  0  0  0  0
  3  8  4  0  0  0  0
  4  5  4  0  0  0  0
  5  6  4  0  0  0  0
  6  7  4  0  0  0  0
  7  8  4  0  0  0  0
  8  9  1  0  0  0  0
  9 10  1  0  0  0  0
  9 14  1  0  0  0  0
 10 11  1  0  0  0  0
 11 12  1  0  0  0  0
 12 13  1  0  0  0  0
 12 15  1  0  0  0  0
 13 14  1  0  0  0  0
 15 16  1  0  0  0  0
 16 17  1  0  0  0  0
 17 18  1  0  0  0  0
 18 19  1  0  0  0  0
 19 20  2  0  0  0  0
 19 21  1  0  0  0  0
 21 22  1  0  0  0  0
 21 26  1  0  0  0  0
 22 23  4  0  0  0  0
 22 30  4  0  0  0  0
 23 24  1  0  0  0  0
 23 27  4  0  0  0  0
 24 25  1  0  0  0  0
 25 26  1  0  0  0  0
 27 28  4  0  0  0  0
 28 29  4  0  0  0  0
 29 30  4  0  0  0  0
 30 31  1  0  0  0  0
 31 32  1  0  0  0  0
M  END
>  <Name_Molregno>
35530

>  <DOPAMINE D4>
7.31

$$$$
35531
  Marvin  02231216192D 0   1.00000     0.00000     0

 31 34  0  0  1  0  0  0  0  0999 V2000
   -6.3910    3.2897    0.0000 O   0  0  0  0  0  0  0  0  0
   -7.1055    3.7022    0.0000 C   0  0  0  0  0  0  0  0  0
   -5.6765    3.7022    0.0000 C   0  0  0  0  0  0  0  0  0
   -5.6765    4.5272    0.0000 C   0  0  0  0  0  0  0  0  0
   -4.9620    4.9397    0.0000 C   0  0  0  0  0  0  0  0  0
   -4.2476    4.5272    0.0000 C   0  0  0  0  0  0  0  0  0
   -4.2476    3.7022    0.0000 C   0  0  0  0  0  0  0  0  0
   -4.9620    3.2897    0.0000 C   0  0  0  0  0  0  0  0  0
   -4.9620    2.4647    0.0000 N   0  0  0  0  0  0  0  0  0
   -4.2476    2.0522    0.0000 C   0  0  0  0  0  0  0  0  0
   -4.2476    1.2272    0.0000 C   0  0  0  0  0  0  0  0  0
   -4.9620    0.8147    0.0000 N   0  0  0  0  0  0  0  0  0
   -5.6765    1.2272    0.0000 C   0  0  0  0  0  0  0  0  0
   -5.6765    2.0522    0.0000 C   0  0  0  0  0  0  0  0  0
   -4.9620   -0.0103    0.0000 C   0  0  0  0  0  0  0  0  0
   -4.2476   -0.4228    0.0000 C   0  0  0  0  0  0  0  0  0
   -4.2476   -1.2478    0.0000 C   0  0  0  0  0  0  0  0  0
   -4.9620   -1.6603    0.0000 O   0  0  0  0  0  0  0  0  0
   -3.5331   -1.6603    0.0000 N   0  0  0  0  0  0  0  0  0
   -3.5331   -2.4853    0.0000 C   0  0  0  0  0  0  0  0  0
   -4.2476   -2.8978    0.0000 C   0  0  0  0  0  0  0  0  0
   -4.2476   -3.7228    0.0000 C   0  0  0  0  0  0  0  0  0
   -3.5331   -4.1353    0.0000 C   0  0  0  0  0  0  0  0  0
   -2.8186   -3.7228    0.0000 C   0  0  0  0  0  0  0  0  0
   -2.8186   -2.8978    0.0000 C   0  0  0  0  0  0  0  0  0
   -2.1042   -2.4853    0.0000 C   0  0  0  0  0  0  0  0  0
   -1.3897   -2.8978    0.0000 C   0  0  0  0  0  0  0  0  0
   -1.3897   -3.7228    0.0000 C   0  0  0  0  0  0  0  0  0
   -2.1042   -4.1353    0.0000 C   0  0  0  0  0  0  0  0  0
   -2.1042   -4.9603    0.0000 O   0  0  0  0  0  0  0  0  0
   -1.3897   -5.3728    0.0000 C   0  0  0  0  0  0  0  0  0
  1  2  1  0  0  0  0
  1  3  1  0  0  0  0
  3  4  4  0  0  0  0
  3  8  4  0  0  0  0
  4  5  4  0  0  0  0
  5  6  4  0  0  0  0
  6  7  4  0  0  0  0
  7  8  4  0  0  0  0
  8  9  1  0  0  0  0
  9 10  1  0  0  0  0
  9 14  1  0  0  0  0
 10 11  1  0  0  0  0
 11 12  1  0  0  0  0
 12 13  1  0  0  0  0
 12 15  1  0  0  0  0
 13 14  1  0  0  0  0
 15 16  1  0  0  0  0
 16 17  1  0  0  0  0
 17 18  2  0  0  0  0
 17 19  1  0  0  0  0
 19 20  1  0  0  0  0
 20 21  1  0  0  0  0
 20 25  1  0  0  0  0
 21 22  1  0  0  0  0
 22 23  1  0  0  0  0
 23 24  1  0  0  0  0
 24 25  4  0  0  0  0
 24 29  4  0  0  0  0
 25 26  4  0  0  0  0
 26 27  4  0  0  0  0
 27 28  4  0  0  0  0
 28 29  4  0  0  0  0
 29 30  1  0  0  0  0
 30 31  1  0  0  0  0
M  END
>  <Name_Molregno>
35531

>  <DOPAMINE D4>
7.17

$$$$
35547
  Marvin  02231216192D 0   1.00000     0.00000     0

 27 30  0  0  0  0  0  0  0  0999 V2000
   -0.5512   -0.4500    0.0000 O   0  0  0  0  0  0  0  0  0
    0.1633   -0.0375    0.0000 C   0  0  0  0  0  0  0  0  0
   -0.5512   -1.2750    0.0000 C   0  0  0  0  0  0  0  0  0
    0.1633   -1.6875    0.0000 C   0  0  0  0  0  0  0  0  0
    0.1633   -2.5125    0.0000 C   0  0  0  0  0  0  0  0  0
   -0.5512   -2.9250    0.0000 C   0  0  0  0  0  0  0  0  0
   -1.2657   -2.5125    0.0000 C   0  0  0  0  0  0  0  0  0
   -1.2657   -1.6875    0.0000 C   0  0  0  0  0  0  0  0  0
   -1.9802   -1.2750    0.0000 N   0  0  0  0  0  0  0  0  0
   -2.6946   -1.6875    0.0000 C   0  0  0  0  0  0  0  0  0
   -3.4091   -1.2750    0.0000 C   0  0  0  0  0  0  0  0  0
   -3.4091   -0.4500    0.0000 N   0  0  0  0  0  0  0  0  0
   -2.6946   -0.0375    0.0000 C   0  0  0  0  0  0  0  0  0
   -1.9802   -0.4500    0.0000 C   0  0  0  0  0  0  0  0  0
   -4.1236   -0.0375    0.0000 C   0  0  0  0  0  0  0  0  0
   -4.1236    0.7875    0.0000 C   0  0  0  0  0  0  0  0  0
   -4.8380    1.2000    0.0000 C   0  0  0  0  0  0  0  0  0
   -4.8380    2.0250    0.0000 C   0  0  0  0  0  0  0  0  0
   -4.1236    2.4375    0.0000 C   0  0  0  0  0  0  0  0  0
   -3.4091    2.0250    0.0000 C   0  0  0  0  0  0  0  0  0
   -3.4091    1.2000    0.0000 C   0  0  0  0  0  0  0  0  0
   -5.5525    2.4375    0.0000 C   0  0  0  0  0  0  0  0  0
   -6.2670    2.0250    0.0000 C   0  0  0  0  0  0  0  0  0
   -6.9815    2.4375    0.0000 C   0  0  0  0  0  0  0  0  0
   -6.9815    3.2625    0.0000 C   0  0  0  0  0  0  0  0  0
   -6.2670    3.6750    0.0000 C   0  0  0  0  0  0  0  0  0
   -5.5525    3.2625    0.0000 C   0  0  0  0  0  0  0  0  0
  1  2  1  0  0  0  0
  1  3  1  0  0  0  0
  3  4  4  0  0  0  0
  3  8  4  0  0  0  0
  4  5  4  0  0  0  0
  5  6  4  0  0  0  0
  6  7  4  0  0  0  0
  7  8  4  0  0  0  0
  8  9  1  0  0  0  0
  9 10  1  0  0  0  0
  9 14  1  0  0  0  0
 10 11  1  0  0  0  0
 11 12  1  0  0  0  0
 12 13  1  0  0  0  0
 12 15  1  0  0  0  0
 13 14  1  0  0  0  0
 15 16  1  0  0  0  0
 16 17  4  0  0  0  0
 16 21  4  0  0  0  0
 17 18  4  0  0  0  0
 18 19  4  0  0  0  0
 18 22  1  0  0  0  0
 19 20  4  0  0  0  0
 20 21  4  0  0  0  0
 22 23  4  0  0  0  0
 22 27  4  0  0  0  0
 23 24  4  0  0  0  0
 24 25  4  0  0  0  0
 25 26  4  0  0  0  0
 26 27  4  0  0  0  0
M  END
>  <Name_Molregno>
35547

>  <DOPAMINE D4>
8.1

$$$$
35583
  Marvin  02231216192D 0   1.00000     0.00000     0

 28 30  0  0  0  0  0  0  0  0999 V2000
   -6.4304   -1.4851    0.0000 O   0  0  0  0  0  0  0  0  0
   -6.4304   -2.3101    0.0000 C   0  0  0  0  0  0  0  0  0
   -7.1448   -1.0726    0.0000 C   0  0  0  0  0  0  0  0  0
   -7.8593   -1.4851    0.0000 C   0  0  0  0  0  0  0  0  0
   -8.5738   -1.0726    0.0000 C   0  0  0  0  0  0  0  0  0
   -8.5738   -0.2476    0.0000 C   0  0  0  0  0  0  0  0  0
   -7.8593    0.1649    0.0000 C   0  0  0  0  0  0  0  0  0
   -7.1448   -0.2476    0.0000 C   0  0  0  0  0  0  0  0  0
   -6.4304    0.1649    0.0000 N   0  0  0  0  0  0  0  0  0
   -6.4304    0.9899    0.0000 C   0  0  0  0  0  0  0  0  0
   -5.7159    1.4024    0.0000 C   0  0  0  0  0  0  0  0  0
   -5.0014    0.9899    0.0000 N   0  0  0  0  0  0  0  0  0
   -5.0014    0.1649    0.0000 C   0  0  0  0  0  0  0  0  0
   -5.7159   -0.2476    0.0000 C   0  0  0  0  0  0  0  0  0
   -4.2869    1.4024    0.0000 C   0  0  0  0  0  0  0  0  0
   -3.5725    0.9899    0.0000 C   0  0  0  0  0  0  0  0  0
   -2.8580    1.4024    0.0000 C   0  0  0  0  0  0  0  0  0
   -2.1435    0.9899    0.0000 C   0  0  0  0  0  0  0  0  0
   -1.4291    1.4024    0.0000 C   0  0  0  0  0  0  0  0  0
   -1.4291    2.2274    0.0000 O   0  0  0  0  0  0  0  0  0
   -0.7146    0.9899    0.0000 C   0  0  0  0  0  0  0  0  0
   -0.0001    1.4024    0.0000 C   0  0  0  0  0  0  0  0  0
    0.7144    0.9899    0.0000 C   0  0  0  0  0  0  0  0  0
    1.4288    1.4024    0.0000 O   0  0  0  0  0  0  0  0  0
    1.4288    2.2274    0.0000 C   0  0  0  0  0  0  0  0  0
    0.7144    0.1649    0.0000 C   0  0  0  0  0  0  0  0  0
   -0.0001   -0.2476    0.0000 C   0  0  0  0  0  0  0  0  0
   -0.7146    0.1649    0.0000 C   0  0  0  0  0  0  0  0  0
  1  2  1  0  0  0  0
  1  3  1  0  0  0  0
  3  4  4  0  0  0  0
  3  8  4  0  0  0  0
  4  5  4  0  0  0  0
  5  6  4  0  0  0  0
  6  7  4  0  0  0  0
  7  8  4  0  0  0  0
  8  9  1  0  0  0  0
  9 10  1  0  0  0  0
  9 14  1  0  0  0  0
 10 11  1  0  0  0  0
 11 12  1  0  0  0  0
 12 13  1  0  0  0  0
 12 15  1  0  0  0  0
 13 14  1  0  0  0  0
 15 16  1  0  0  0  0
 16 17  1  0  0  0  0
 17 18  1  0  0  0  0
 18 19  1  0  0  0  0
 19 20  2  0  0  0  0
 19 21  1  0  0  0  0
 21 22  4  0  0  0  0
 21 28  4  0  0  0  0
 22 23  4  0  0  0  0
 23 24  1  0  0  0  0
 23 26  4  0  0  0  0
 24 25  1  0  0  0  0
 26 27  4  0  0  0  0
 27 28  4  0  0  0  0
M  END
>  <Name_Molregno>
35583

>  <DOPAMINE D4>
7.37

$$$$
35603
  Marvin  02231216192D 0   1.00000     0.00000     0

 27 29  0  0  0  0  0  0  0  0999 V2000
   -7.1027    0.0137    0.0000 O   0  0  0  0  0  0  0  0  0
   -7.8171   -0.3988    0.0000 C   0  0  0  0  0  0  0  0  0
   -7.1027    0.8387    0.0000 C   0  0  0  0  0  0  0  0  0
   -7.8171    1.2512    0.0000 C   0  0  0  0  0  0  0  0  0
   -7.8171    2.0762    0.0000 C   0  0  0  0  0  0  0  0  0
   -7.1027    2.4887    0.0000 C   0  0  0  0  0  0  0  0  0
   -6.3882    2.0762    0.0000 C   0  0  0  0  0  0  0  0  0
   -6.3882    1.2512    0.0000 C   0  0  0  0  0  0  0  0  0
   -5.6737    0.8387    0.0000 N   0  0  0  0  0  0  0  0  0
   -4.9593    1.2512    0.0000 C   0  0  0  0  0  0  0  0  0
   -4.2448    0.8387    0.0000 C   0  0  0  0  0  0  0  0  0
   -4.2448    0.0137    0.0000 N   0  0  0  0  0  0  0  0  0
   -4.9593   -0.3988    0.0000 C   0  0  0  0  0  0  0  0  0
   -5.6737    0.0137    0.0000 C   0  0  0  0  0  0  0  0  0
   -3.5303   -0.3988    0.0000 C   0  0  0  0  0  0  0  0  0
   -2.8158    0.0137    0.0000 C   0  0  0  0  0  0  0  0  0
   -2.1014   -0.3988    0.0000 C   0  0  0  0  0  0  0  0  0
   -1.3869    0.0137    0.0000 C   0  0  0  0  0  0  0  0  0
   -1.3869    0.8387    0.0000 O   0  0  0  0  0  0  0  0  0
   -0.6724   -0.3988    0.0000 C   0  0  0  0  0  0  0  0  0
    0.0420    0.0137    0.0000 C   0  0  0  0  0  0  0  0  0
    0.7565   -0.3988    0.0000 C   0  0  0  0  0  0  0  0  0
    1.4710    0.0137    0.0000 O   0  0  0  0  0  0  0  0  0
    2.1855   -0.3988    0.0000 C   0  0  0  0  0  0  0  0  0
    0.7565   -1.2238    0.0000 C   0  0  0  0  0  0  0  0  0
    0.0420   -1.6363    0.0000 C   0  0  0  0  0  0  0  0  0
   -0.6724   -1.2238    0.0000 C   0  0  0  0  0  0  0  0  0
  1  2  1  0  0  0  0
  1  3  1  0  0  0  0
  3  4  4  0  0  0  0
  3  8  4  0  0  0  0
  4  5  4  0  0  0  0
  5  6  4  0  0  0  0
  6  7  4  0  0  0  0
  7  8  4  0  0  0  0
  8  9  1  0  0  0  0
  9 10  1  0  0  0  0
  9 14  1  0  0  0  0
 10 11  1  0  0  0  0
 11 12  1  0  0  0  0
 12 13  1  0  0  0  0
 12 15  1  0  0  0  0
 13 14  1  0  0  0  0
 15 16  1  0  0  0  0
 16 17  1  0  0  0  0
 17 18  1  0  0  0  0
 18 19  2  0  0  0  0
 18 20  1  0  0  0  0
 20 21  4  0  0  0  0
 20 27  4  0  0  0  0
 21 22  4  0  0  0  0
 22 23  1  0  0  0  0
 22 25  4  0  0  0  0
 23 24  1  0  0  0  0
 25 26  4  0  0  0  0
 26 27  4  0  0  0  0
M  END
>  <Name_Molregno>
35603

>  <DOPAMINE D4>
8.77

$$$$
35612
  Marvin  02231216192D 0   1.00000     0.00000     0

 26 29  0  0  0  0  0  0  0  0999 V2000
   -1.9892    3.5682    0.0000 O   0  0  0  0  0  0  0  0  0
   -1.9892    4.3932    0.0000 C   0  0  0  0  0  0  0  0  0
   -1.2747    3.1557    0.0000 C   0  0  0  0  0  0  0  0  0
   -0.5603    3.5682    0.0000 C   0  0  0  0  0  0  0  0  0
    0.1542    3.1557    0.0000 C   0  0  0  0  0  0  0  0  0
    0.1542    2.3307    0.0000 C   0  0  0  0  0  0  0  0  0
   -0.5603    1.9182    0.0000 C   0  0  0  0  0  0  0  0  0
   -1.2747    2.3307    0.0000 C   0  0  0  0  0  0  0  0  0
   -1.9892    1.9182    0.0000 N   0  0  0  0  0  0  0  0  0
   -1.9892    1.0932    0.0000 C   0  0  0  0  0  0  0  0  0
   -2.7037    0.6807    0.0000 C   0  0  0  0  0  0  0  0  0
   -3.4181    1.0932    0.0000 N   0  0  0  0  0  0  0  0  0
   -3.4181    1.9182    0.0000 C   0  0  0  0  0  0  0  0  0
   -2.7037    2.3307    0.0000 C   0  0  0  0  0  0  0  0  0
   -4.1326    0.6807    0.0000 C   0  0  0  0  0  0  0  0  0
   -4.1326   -0.1443    0.0000 C   0  0  0  0  0  0  0  0  0
   -3.4652   -0.6292    0.0000 C   0  0  0  0  0  0  0  0  0
   -3.7201   -1.4138    0.0000 C   0  0  0  0  0  0  0  0  0
   -4.5451   -1.4138    0.0000 N   0  0  0  0  0  0  0  0  0
   -4.8000   -0.6292    0.0000 C   0  0  0  0  0  0  0  0  0
   -5.0300   -2.0813    0.0000 C   0  0  0  0  0  0  0  0  0
   -4.6945   -2.8349    0.0000 C   0  0  0  0  0  0  0  0  0
   -5.1794   -3.5024    0.0000 C   0  0  0  0  0  0  0  0  0
   -5.9999   -3.4161    0.0000 C   0  0  0  0  0  0  0  0  0
   -6.3354   -2.6625    0.0000 C   0  0  0  0  0  0  0  0  0
   -5.8505   -1.9950    0.0000 C   0  0  0  0  0  0  0  0  0
  1  2  1  0  0  0  0
  1  3  1  0  0  0  0
  3  4  4  0  0  0  0
  3  8  4  0  0  0  0
  4  5  4  0  0  0  0
  5  6  4  0  0  0  0
  6  7  4  0  0  0  0
  7  8  4  0  0  0  0
  8  9  1  0  0  0  0
  9 10  1  0  0  0  0
  9 14  1  0  0  0  0
 10 11  1  0  0  0  0
 11 12  1  0  0  0  0
 12 13  1  0  0  0  0
 12 15  1  0  0  0  0
 13 14  1  0  0  0  0
 15 16  1  0  0  0  0
 16 17  4  0  0  0  0
 16 20  4  0  0  0  0
 17 18  4  0  0  0  0
 18 19  4  0  0  0  0
 19 20  4  0  0  0  0
 19 21  1  0  0  0  0
 21 22  4  0  0  0  0
 21 26  4  0  0  0  0
 22 23  4  0  0  0  0
 23 24  4  0  0  0  0
 24 25  4  0  0  0  0
 25 26  4  0  0  0  0
M  END
>  <Name_Molregno>
35612

>  <DOPAMINE D4>
8.89

$$$$
38445
  Marvin  02231216192D 0   1.00000     0.00000     0

 29 32  0  0  0  0  0  0  0  0999 V2000
    9.5911   -1.5592    0.0000 Cl  0  0  0  0  0  0  0  0  0
    8.8766   -1.1467    0.0000 C   0  0  0  0  0  0  0  0  0
    8.1622   -1.5592    0.0000 C   0  0  0  0  0  0  0  0  0
    7.4477   -1.1467    0.0000 C   0  0  0  0  0  0  0  0  0
    7.4477   -0.3217    0.0000 C   0  0  0  0  0  0  0  0  0
    6.6631   -0.0667    0.0000 S   0  0  0  0  0  0  0  0  0
    6.1782   -0.7342    0.0000 C   0  0  0  0  0  0  0  0  0
    5.3532   -0.7342    0.0000 S   0  0  0  0  0  0  0  0  0
    5.3532    0.0908    0.0000 O   0  0  0  0  0  0  0  0  0
    5.3532   -1.5592    0.0000 O   0  0  0  0  0  0  0  0  0
    4.5282   -0.7342    0.0000 N   0  0  0  0  0  0  0  0  0
    4.1157   -0.0197    0.0000 C   0  0  0  0  0  0  0  0  0
    3.2907   -0.0197    0.0000 C   0  0  0  0  0  0  0  0  0
    2.8782    0.6948    0.0000 C   0  0  0  0  0  0  0  0  0
    2.0532    0.6948    0.0000 N   0  0  0  0  0  0  0  0  0
    1.6407   -0.0197    0.0000 C   0  0  0  0  0  0  0  0  0
    0.8157   -0.0197    0.0000 C   0  0  0  0  0  0  0  0  0
    0.4032    0.6948    0.0000 N   0  0  0  0  0  0  0  0  0
    0.8157    1.4092    0.0000 C   0  0  0  0  0  0  0  0  0
    1.6407    1.4092    0.0000 C   0  0  0  0  0  0  0  0  0
    3.2907    1.4092    0.0000 C   0  0  0  0  0  0  0  0  0
    2.8782    2.1237    0.0000 O   0  0  0  0  0  0  0  0  0
    3.2907    2.8382    0.0000 C   0  0  0  0  0  0  0  0  0
    4.1157    1.4092    0.0000 C   0  0  0  0  0  0  0  0  0
    4.5282    0.6948    0.0000 C   0  0  0  0  0  0  0  0  0
    6.6631   -1.4016    0.0000 C   0  0  0  0  0  0  0  0  0
    6.4081   -2.1862    0.0000 C   0  0  0  0  0  0  0  0  0
    8.1622    0.0908    0.0000 C   0  0  0  0  0  0  0  0  0
    8.8766   -0.3217    0.0000 C   0  0  0  0  0  0  0  0  0
  1  2  1  0  0  0  0
  2  3  4  0  0  0  0
  2 29  4  0  0  0  0
  3  4  4  0  0  0  0
  4  5  4  0  0  0  0
  4 26  4  0  0  0  0
  5  6  4  0  0  0  0
  5 28  4  0  0  0  0
  6  7  4  0  0  0  0
  7  8  1  0  0  0  0
  7 26  4  0  0  0  0
  8  9  2  0  0  0  0
  8 10  2  0  0  0  0
  8 11  1  0  0  0  0
 11 12  1  0  0  0  0
 12 13  4  0  0  0  0
 12 25  4  0  0  0  0
 13 14  4  0  0  0  0
 14 15  1  0  0  0  0
 14 21  4  0  0  0  0
 15 16  1  0  0  0  0
 15 20  1  0  0  0  0
 16 17  1  0  0  0  0
 17 18  1  0  0  0  0
 18 19  1  0  0  0  0
 19 20  1  0  0  0  0
 21 22  1  0  0  0  0
 21 24  4  0  0  0  0
 22 23  1  0  0  0  0
 24 25  4  0  0  0  0
 26 27  1  0  0  0  0
 28 29  4  0  0  0  0
M  END
>  <Name_Molregno>
38445

>  <5-HT1A>
6.47

>  <5-HT2A>
5.76

>  <5-HT2C>
6.28

>  <5-HT6>
8.87

>  <5-HT7>
6.59

>  <DOPAMINE D1>
6.92

>  <DOPAMINE D2>
6.34

>  <DOPAMINE D3>
5.88

>  <DOPAMINE D4>
6.89

$$$$
40961
  Marvin  02231216192D 0   1.00000     0.00000     0

 24 27  0  0  0  0  0  0  0  0999 V2000
   -8.4666    1.7569    0.0000 O   0  0  0  0  0  0  0  0  0
   -9.0187    1.1438    0.0000 C   0  0  0  0  0  0  0  0  0
   -7.6597    1.5853    0.0000 C   0  0  0  0  0  0  0  0  0
   -7.1076    2.1984    0.0000 C   0  0  0  0  0  0  0  0  0
   -6.3007    2.0269    0.0000 C   0  0  0  0  0  0  0  0  0
   -6.0457    1.2423    0.0000 C   0  0  0  0  0  0  0  0  0
   -5.2387    1.0708    0.0000 N   0  0  0  0  0  0  0  0  0
   -4.6867    1.6839    0.0000 C   0  0  0  0  0  0  0  0  0
   -3.8797    1.5123    0.0000 C   0  0  0  0  0  0  0  0  0
   -3.6248    0.7277    0.0000 N   0  0  0  0  0  0  0  0  0
   -4.1768    0.1146    0.0000 C   0  0  0  0  0  0  0  0  0
   -4.9838    0.2861    0.0000 C   0  0  0  0  0  0  0  0  0
   -2.8178    0.5562    0.0000 C   0  0  0  0  0  0  0  0  0
   -2.5629   -0.2284    0.0000 C   0  0  0  0  0  0  0  0  0
   -1.7783   -0.4834    0.0000 C   0  0  0  0  0  0  0  0  0
   -1.0638   -0.0709    0.0000 C   0  0  0  0  0  0  0  0  0
   -0.3493   -0.4834    0.0000 C   0  0  0  0  0  0  0  0  0
   -0.3493   -1.3084    0.0000 C   0  0  0  0  0  0  0  0  0
   -1.0638   -1.7209    0.0000 N   0  0  0  0  0  0  0  0  0
   -1.7783   -1.3084    0.0000 C   0  0  0  0  0  0  0  0  0
   -2.5629   -1.5633    0.0000 N   0  0  0  0  0  0  0  0  0
   -3.0478   -0.8959    0.0000 C   0  0  0  0  0  0  0  0  0
   -6.5977    0.6292    0.0000 C   0  0  0  0  0  0  0  0  0
   -7.4047    0.8007    0.0000 C   0  0  0  0  0  0  0  0  0
  1  2  1  0  0  0  0
  1  3  1  0  0  0  0
  3  4  4  0  0  0  0
  3 24  4  0  0  0  0
  4  5  4  0  0  0  0
  5  6  4  0  0  0  0
  6  7  1  0  0  0  0
  6 23  4  0  0  0  0
  7  8  1  0  0  0  0
  7 12  1  0  0  0  0
  8  9  1  0  0  0  0
  9 10  1  0  0  0  0
 10 11  1  0  0  0  0
 10 13  1  0  0  0  0
 11 12  1  0  0  0  0
 13 14  1  0  0  0  0
 14 15  4  0  0  0  0
 14 22  4  0  0  0  0
 15 16  4  0  0  0  0
 15 20  4  0  0  0  0
 16 17  4  0  0  0  0
 17 18  4  0  0  0  0
 18 19  4  0  0  0  0
 19 20  4  0  0  0  0
 20 21  4  0  0  0  0
 21 22  4  0  0  0  0
 23 24  4  0  0  0  0
M  STY  1   1 DAT
M  SAL   1  1  21
M  SDT   1 MRV_IMPLICIT_H                                        
M  SDD   1     0.0000    0.0000    DR    ALL  0       0  
M  SED   1 IMPL_H1
M  END
>  <Name_Molregno>
40961

>  <5-HT1A>
5

>  <5-HT1B>
5

>  <5-HT1D>
5

>  <5-HT1E>
5

>  <5-HT2A>
5

>  <5-HT2C>
5

>  <5-HT5>
5

>  <5-HT6>
5

>  <5-HT7>
5

>  <DOPAMINE D2>
5.82

>  <DOPAMINE D3>
5.41

>  <DOPAMINE D4>
8.89

$$$$
42179
  Marvin  02231216192D 0   1.00000     0.00000     0

 31 34  0  0  0  0  0  0  0  0999 V2000
    0.8929    1.6421    0.0000 O   0  0  0  0  0  0  0  0  0
    1.6074    2.0546    0.0000 C   0  0  0  0  0  0  0  0  0
    0.8929    0.8171    0.0000 C   0  0  0  0  0  0  0  0  0
    1.6074    0.4046    0.0000 C   0  0  0  0  0  0  0  0  0
    1.6074   -0.4204    0.0000 C   0  0  0  0  0  0  0  0  0
    0.8929   -0.8329    0.0000 C   0  0  0  0  0  0  0  0  0
    0.1785   -0.4204    0.0000 C   0  0  0  0  0  0  0  0  0
    0.1785    0.4046    0.0000 C   0  0  0  0  0  0  0  0  0
   -0.5360    0.8171    0.0000 N   0  0  0  0  0  0  0  0  0
   -1.2505    0.4046    0.0000 C   0  0  0  0  0  0  0  0  0
   -1.9649    0.8171    0.0000 C   0  0  0  0  0  0  0  0  0
   -1.9649    1.6421    0.0000 N   0  0  0  0  0  0  0  0  0
   -1.2505    2.0546    0.0000 C   0  0  0  0  0  0  0  0  0
   -0.5360    1.6421    0.0000 C   0  0  0  0  0  0  0  0  0
   -2.6794    2.0546    0.0000 C   0  0  0  0  0  0  0  0  0
   -3.3939    1.6421    0.0000 C   0  0  0  0  0  0  0  0  0
   -4.1083    2.0546    0.0000 N   0  0  0  0  0  0  0  0  0
   -4.8228    1.6421    0.0000 C   0  0  0  0  0  0  0  0  0
   -4.8228    0.8171    0.0000 O   0  0  0  0  0  0  0  0  0
   -5.5373    2.0546    0.0000 C   0  0  0  0  0  0  0  0  0
   -6.2518    1.6421    0.0000 C   0  0  0  0  0  0  0  0  0
   -6.9662    2.0546    0.0000 C   0  0  0  0  0  0  0  0  0
   -6.9662    2.8796    0.0000 C   0  0  0  0  0  0  0  0  0
   -6.2518    3.2921    0.0000 C   0  0  0  0  0  0  0  0  0
   -5.5373    2.8796    0.0000 C   0  0  0  0  0  0  0  0  0
   -4.1083    2.8796    0.0000 C   0  0  0  0  0  0  0  0  0
   -4.8228    3.2921    0.0000 N   0  0  0  0  0  0  0  0  0
   -4.8228    4.1171    0.0000 C   0  0  0  0  0  0  0  0  0
   -4.1083    4.5296    0.0000 C   0  0  0  0  0  0  0  0  0
   -3.3939    4.1171    0.0000 C   0  0  0  0  0  0  0  0  0
   -3.3939    3.2921    0.0000 C   0  0  0  0  0  0  0  0  0
  1  2  1  0  0  0  0
  1  3  1  0  0  0  0
  3  4  4  0  0  0  0
  3  8  4  0  0  0  0
  4  5  4  0  0  0  0
  5  6  4  0  0  0  0
  6  7  4  0  0  0  0
  7  8  4  0  0  0  0
  8  9  1  0  0  0  0
  9 10  1  0  0  0  0
  9 14  1  0  0  0  0
 10 11  1  0  0  0  0
 11 12  1  0  0  0  0
 12 13  1  0  0  0  0
 12 15  1  0  0  0  0
 13 14  1  0  0  0  0
 15 16  1  0  0  0  0
 16 17  1  0  0  0  0
 17 18  1  0  0  0  0
 17 26  1  0  0  0  0
 18 19  2  0  0  0  0
 18 20  1  0  0  0  0
 20 21  1  0  0  0  0
 20 25  1  0  0  0  0
 21 22  1  0  0  0  0
 22 23  1  0  0  0  0
 23 24  1  0  0  0  0
 24 25  1  0  0  0  0
 26 27  4  0  0  0  0
 26 31  4  0  0  0  0
 27 28  4  0  0  0  0
 28 29  4  0  0  0  0
 29 30  4  0  0  0  0
 30 31  4  0  0  0  0
M  END
>  <Name_Molregno>
42179

>  <5-HT1A>
9.12

>  <5-HT1B>
5

>  <5-HT1D>
5

>  <5-HT1E>
5

>  <5-HT2A>
5.2

>  <5-HT5>
5

>  <5-HT6>
5

>  <5-HT7>
5

>  <Alpha-1A>
7.71

>  <Alpha-1B>
6.33

>  <Alpha-2A>
5

>  <Alpha-2B>
5

>  <Alpha-2C>
5.59

>  <DOPAMINE D1>
5

>  <DOPAMINE D2>
6.57

>  <DOPAMINE D3>
7.17

>  <DOPAMINE D4>
7.79

>  <DOPAMINE D5>
5

>  <HISTAMINE H1>
5

>  <HISTAMINE H2>
5

>  <HISTAMINE H4>
5

>  <Muscarinic acetylcholine receptor M2>
5

>  <Muscarinic acetylcholine receptor M5>
5

$$$$
52338
  Marvin  02231216192D 0   1.00000     0.00000     0

 18 19  0  0  1  0  0  0  0  0999 V2000
   -4.9210   -2.8534    0.0000 O   0  0  0  0  0  0  0  0  0
   -4.2065   -2.4409    0.0000 C   0  0  0  0  0  0  0  0  0
   -4.2065   -1.6159    0.0000 C   0  0  0  0  0  0  0  0  0
   -3.4921   -1.2034    0.0000 C   0  0  0  0  0  0  0  0  0
   -3.4921   -0.3784    0.0000 C   0  0  0  0  0  0  0  0  0
   -2.7776    0.0341    0.0000 C   0  0  0  0  0  0  0  0  0
   -2.7776    0.8591    0.0000 N   0  0  0  0  0  0  0  0  0
   -3.4921    1.2716    0.0000 C   0  0  0  0  0  0  0  0  0
   -3.4921    2.0966    0.0000 C   0  0  0  0  0  0  0  0  0
   -4.2065    2.5091    0.0000 C   0  0  0  0  0  0  0  0  0
   -2.0631    1.2716    0.0000 C   0  0  0  0  0  0  0  0  0
   -2.0631    2.0966    0.0000 C   0  0  0  0  0  0  0  0  0
   -1.3487    2.5091    0.0000 C   0  0  0  0  0  0  0  0  0
   -2.0631   -0.3784    0.0000 C   0  0  0  0  0  0  0  0  0
   -2.0631   -1.2034    0.0000 C   0  0  0  0  0  0  0  0  0
   -2.7776   -1.6159    0.0000 C   0  0  0  0  0  0  0  0  0
   -2.7776   -2.4409    0.0000 C   0  0  0  0  0  0  0  0  0
   -3.4921   -2.8534    0.0000 C   0  0  0  0  0  0  0  0  0
  1  2  1  0  0  0  0
  2  3  4  0  0  0  0
  2 18  4  0  0  0  0
  3  4  4  0  0  0  0
  4  5  1  0  0  0  0
  4 16  4  0  0  0  0
  5  6  1  0  0  0  0
  6  7  1  0  0  0  0
  6 14  1  0  0  0  0
  7  8  1  0  0  0  0
  7 11  1  0  0  0  0
  8  9  1  0  0  0  0
  9 10  1  0  0  0  0
 11 12  1  0  0  0  0
 12 13  1  0  0  0  0
 14 15  1  0  0  0  0
 15 16  1  0  0  0  0
 16 17  4  0  0  0  0
 17 18  4  0  0  0  0
M  END
>  <Name_Molregno>
52338

>  <5-HT1A>
7.07

>  <DOPAMINE D2>
6.97

>  <DOPAMINE D3>
8.62

>  <DOPAMINE D4>
6.45

>  <HISTAMINE H1>
5.82

$$$$
62720
  Marvin  02231216192D 0   1.00000     0.00000     0

 22 25  0  0  0  0  0  0  0  0999 V2000
   -0.6108   -1.6501    0.0000 O   0  0  0  0  0  0  0  0  0
   -0.0588   -1.0370    0.0000 C   0  0  0  0  0  0  0  0  0
    0.7482   -1.2086    0.0000 N   0  0  0  0  0  0  0  0  0
    1.0031   -1.9932    0.0000 C   0  0  0  0  0  0  0  0  0
    1.8101   -2.1647    0.0000 C   0  0  0  0  0  0  0  0  0
    2.0650   -2.9493    0.0000 C   0  0  0  0  0  0  0  0  0
    1.5130   -3.5624    0.0000 C   0  0  0  0  0  0  0  0  0
    0.7060   -3.3909    0.0000 N   0  0  0  0  0  0  0  0  0
    0.4511   -2.6063    0.0000 C   0  0  0  0  0  0  0  0  0
   -0.3137   -0.2524    0.0000 N   0  0  0  0  0  0  0  0  0
    0.1712    0.4150    0.0000 C   0  0  0  0  0  0  0  0  0
   -0.3137    1.0825    0.0000 C   0  0  0  0  0  0  0  0  0
   -1.0984    0.8275    0.0000 C   0  0  0  0  0  0  0  0  0
   -1.0984    0.0025    0.0000 C   0  0  0  0  0  0  0  0  0
   -1.8128   -0.4100    0.0000 C   0  0  0  0  0  0  0  0  0
   -2.5273    0.0025    0.0000 C   0  0  0  0  0  0  0  0  0
   -2.5273    0.8275    0.0000 C   0  0  0  0  0  0  0  0  0
   -3.3119    1.0825    0.0000 N   0  0  0  0  0  0  0  0  0
   -3.7969    0.4150    0.0000 C   0  0  0  0  0  0  0  0  0
   -3.3119   -0.2524    0.0000 C   0  0  0  0  0  0  0  0  0
   -3.5669    1.8671    0.0000 C   0  0  0  0  0  0  0  0  0
   -1.8128    1.2400    0.0000 C   0  0  0  0  0  0  0  0  0
  1  2  2  0  0  0  0
  2  3  1  0  0  0  0
  2 10  1  0  0  0  0
  3  4  1  0  0  0  0
  4  5  4  0  0  0  0
  4  9  4  0  0  0  0
  5  6  4  0  0  0  0
  6  7  4  0  0  0  0
  7  8  4  0  0  0  0
  8  9  4  0  0  0  0
 10 11  1  0  0  0  0
 10 14  1  0  0  0  0
 11 12  1  0  0  0  0
 12 13  1  0  0  0  0
 13 14  4  0  0  0  0
 13 22  4  0  0  0  0
 14 15  4  0  0  0  0
 15 16  4  0  0  0  0
 16 17  4  0  0  0  0
 16 20  4  0  0  0  0
 17 18  4  0  0  0  0
 17 22  4  0  0  0  0
 18 19  4  0  0  0  0
 18 21  1  0  0  0  0
 19 20  4  0  0  0  0
M  END
>  <Name_Molregno>
62720

>  <5-HT1E>
5.3

>  <5-HT2A>
5.73

>  <5-HT2C>
8.02

>  <5-HT7>
6

>  <DOPAMINE D2>
5

>  <DOPAMINE D3>
5

>  <DOPAMINE D4>
5

$$$$
66613
  Marvin  02231216192D 0   1.00000     0.00000     0

 14 15  0  0  1  0  0  0  0  0999 V2000
   -3.5937   -0.7341    0.0000 O   0  0  0  0  0  0  0  0  0
   -2.8091   -0.9890    0.0000 C   0  0  0  0  0  0  0  0  0
   -2.0946   -0.5765    0.0000 C   0  0  0  0  0  0  0  0  0
   -1.3801   -0.9890    0.0000 C   0  0  0  0  0  0  0  0  0
   -1.3801   -1.8140    0.0000 C   0  0  0  0  0  0  0  0  0
   -2.0946   -2.2265    0.0000 C   0  0  0  0  0  0  0  0  0
   -2.8091   -1.8140    0.0000 C   0  0  0  0  0  0  0  0  0
   -3.5937   -2.0690    0.0000 O   0  0  0  0  0  0  0  0  0
   -4.0786   -1.4015    0.0000 C   0  0  0  0  0  0  0  0  0
   -0.6657   -0.5765    0.0000 C   0  0  0  0  0  0  0  0  0
   -0.6657    0.2485    0.0000 C   0  0  0  0  0  0  0  0  0
    0.0488    0.6610    0.0000 N   0  0  0  0  0  0  0  0  0
    0.0488    1.4860    0.0000 C   0  0  0  0  0  0  0  0  0
   -1.3801    0.6610    0.0000 C   0  0  0  0  0  0  0  0  0
  1  2  1  0  0  0  0
  1  9  1  0  0  0  0
  2  3  4  0  0  0  0
  2  7  4  0  0  0  0
  3  4  4  0  0  0  0
  4  5  4  0  0  0  0
  4 10  1  0  0  0  0
  5  6  4  0  0  0  0
  6  7  4  0  0  0  0
  7  8  1  0  0  0  0
  8  9  1  0  0  0  0
 10 11  1  0  0  0  0
 11 12  1  0  0  0  0
 11 14  1  0  0  0  0
 12 13  1  0  0  0  0
M  END
>  <Name_Molregno>
66613

>  <5-HT1A>
5

>  <5-HT1B>
5

>  <5-HT1D>
5

>  <5-HT1E>
5

>  <5-HT2A>
5

>  <5-HT3>
5

>  <5-HT5>
5

>  <5-HT6>
5

>  <5-HT7>
5

>  <Alpha-1A>
5

>  <Alpha-1B>
5

>  <Alpha-2A>
5.6

>  <Alpha-2B>
5.75

>  <Alpha-2C>
5.95

>  <Beta-1>
5

>  <Beta-2>
5

>  <DOPAMINE D1>
5

>  <DOPAMINE D2>
5

>  <DOPAMINE D3>
5

>  <DOPAMINE D4>
5

>  <DOPAMINE D5>
5

>  <Dopamine transporter>
5

>  <HISTAMINE H1>
5.67

>  <HISTAMINE H2>
5

>  <Muscarinic acetylcholine receptor M1>
5

>  <Muscarinic acetylcholine receptor M2>
5

>  <Muscarinic acetylcholine receptor M3>
5.73

>  <Muscarinic acetylcholine receptor M4>
5.08

>  <Muscarinic acetylcholine receptor M5>
5.2

>  <Norepinephrine transporter>
5

>  <Serotonin transporter>
7.24

$$$$
68578
  Marvin  02231216192D 0   1.00000     0.00000     0

 25 27  0  0  0  0  0  0  0  0999 V2000
    1.9302    2.0157    0.0000 O   0  0  0  0  0  0  0  0  0
    2.6447    1.6032    0.0000 C   0  0  0  0  0  0  0  0  0
    2.6447    0.7782    0.0000 N   0  0  0  0  0  0  0  0  0
    1.9302    0.3657    0.0000 C   0  0  0  0  0  0  0  0  0
    1.9302   -0.4593    0.0000 N   0  0  0  0  0  0  0  0  0
    2.6447   -0.8718    0.0000 C   0  0  0  0  0  0  0  0  0
    2.6447   -1.6968    0.0000 C   0  0  0  0  0  0  0  0  0
    1.9302   -2.1093    0.0000 N   0  0  0  0  0  0  0  0  0
    1.2157   -1.6968    0.0000 C   0  0  0  0  0  0  0  0  0
    1.2157   -0.8718    0.0000 C   0  0  0  0  0  0  0  0  0
    1.9302   -2.9343    0.0000 C   0  0  0  0  0  0  0  0  0
    2.6447   -3.3468    0.0000 C   0  0  0  0  0  0  0  0  0
    2.6447   -4.1718    0.0000 C   0  0  0  0  0  0  0  0  0
    1.9302   -4.5843    0.0000 C   0  0  0  0  0  0  0  0  0
    1.2157   -4.1718    0.0000 C   0  0  0  0  0  0  0  0  0
    1.2157   -3.3468    0.0000 C   0  0  0  0  0  0  0  0  0
    0.5013   -2.9343    0.0000 C   0  0  0  0  0  0  0  0  0
   -0.2132   -2.5218    0.0000 N   0  0  0  0  0  0  0  0  0
    3.3592    2.0157    0.0000 C   0  0  0  0  0  0  0  0  0
    3.3592    2.8407    0.0000 C   0  0  0  0  0  0  0  0  0
    4.0736    3.2532    0.0000 C   0  0  0  0  0  0  0  0  0
    4.7881    2.8407    0.0000 C   0  0  0  0  0  0  0  0  0
    4.7881    2.0157    0.0000 C   0  0  0  0  0  0  0  0  0
    4.0736    1.6032    0.0000 C   0  0  0  0  0  0  0  0  0
    4.0736    4.0782    0.0000 C   0  0  0  0  0  0  0  0  0
  1  2  2  0  0  0  0
  2  3  1  0  0  0  0
  2 19  1  0  0  0  0
  3  4  1  0  0  0  0
  4  5  1  0  0  0  0
  5  6  1  0  0  0  0
  5 10  1  0  0  0  0
  6  7  1  0  0  0  0
  7  8  1  0  0  0  0
  8  9  1  0  0  0  0
  8 11  1  0  0  0  0
  9 10  1  0  0  0  0
 11 12  4  0  0  0  0
 11 16  4  0  0  0  0
 12 13  4  0  0  0  0
 13 14  4  0  0  0  0
 14 15  4  0  0  0  0
 15 16  4  0  0  0  0
 16 17  1  0  0  0  0
 17 18  3  0  0  0  0
 19 20  4  0  0  0  0
 19 24  4  0  0  0  0
 20 21  4  0  0  0  0
 21 22  4  0  0  0  0
 21 25  1  0  0  0  0
 22 23  4  0  0  0  0
 23 24  4  0  0  0  0
M  END
>  <Name_Molregno>
68578

>  <DOPAMINE D2>
5.49

>  <DOPAMINE D4>
7.92

$$$$
75328
  Marvin  02231216192D 0   1.00000     0.00000     0

 24 26  0  0  0  0  0  0  0  0999 V2000
   -0.6014   -1.1712    0.0000 Cl  0  0  0  0  0  0  0  0  0
   -0.6014   -1.9962    0.0000 C   0  0  0  0  0  0  0  0  0
    0.1131   -2.4087    0.0000 C   0  0  0  0  0  0  0  0  0
    0.1131   -3.2337    0.0000 C   0  0  0  0  0  0  0  0  0
   -0.6014   -3.6462    0.0000 C   0  0  0  0  0  0  0  0  0
   -1.3159   -3.2337    0.0000 C   0  0  0  0  0  0  0  0  0
   -1.3159   -2.4087    0.0000 C   0  0  0  0  0  0  0  0  0
   -2.0303   -1.9962    0.0000 N   0  0  0  0  0  0  0  0  0
   -2.7448   -2.4088    0.0000 C   0  0  0  0  0  0  0  0  0
   -3.4593   -1.9963    0.0000 C   0  0  0  0  0  0  0  0  0
   -3.4593   -1.1713    0.0000 N   0  0  0  0  0  0  0  0  0
   -2.7448   -0.7588    0.0000 C   0  0  0  0  0  0  0  0  0
   -2.0303   -1.1712    0.0000 C   0  0  0  0  0  0  0  0  0
   -4.1737   -0.7588    0.0000 C   0  0  0  0  0  0  0  0  0
   -4.1737    0.0662    0.0000 N   0  0  0  0  0  0  0  0  0
   -4.8882    0.4787    0.0000 C   0  0  0  0  0  0  0  0  0
   -5.6027    0.0662    0.0000 O   0  0  0  0  0  0  0  0  0
   -4.8882    1.3037    0.0000 C   0  0  0  0  0  0  0  0  0
   -5.6027    1.7162    0.0000 C   0  0  0  0  0  0  0  0  0
   -5.6027    2.5412    0.0000 C   0  0  0  0  0  0  0  0  0
   -6.3172    2.9537    0.0000 Cl  0  0  0  0  0  0  0  0  0
   -4.8882    2.9537    0.0000 C   0  0  0  0  0  0  0  0  0
   -4.1737    2.5412    0.0000 C   0  0  0  0  0  0  0  0  0
   -4.1737    1.7162    0.0000 C   0  0  0  0  0  0  0  0  0
  1  2  1  0  0  0  0
  2  3  4  0  0  0  0
  2  7  4  0  0  0  0
  3  4  4  0  0  0  0
  4  5  4  0  0  0  0
  5  6  4  0  0  0  0
  6  7  4  0  0  0  0
  7  8  1  0  0  0  0
  8  9  1  0  0  0  0
  8 13  1  0  0  0  0
  9 10  1  0  0  0  0
 10 11  1  0  0  0  0
 11 12  1  0  0  0  0
 11 14  1  0  0  0  0
 12 13  1  0  0  0  0
 14 15  1  0  0  0  0
 15 16  1  0  0  0  0
 16 17  2  0  0  0  0
 16 18  1  0  0  0  0
 18 19  4  0  0  0  0
 18 24  4  0  0  0  0
 19 20  4  0  0  0  0
 20 21  1  0  0  0  0
 20 22  4  0  0  0  0
 22 23  4  0  0  0  0
 23 24  4  0  0  0  0
M  END
>  <Name_Molregno>
75328

>  <DOPAMINE D2>
6.03

>  <DOPAMINE D4>
7.39

$$$$
75330
  Marvin  02231216192D 0   1.00000     0.00000     0

 25 27  0  0  0  0  0  0  0  0999 V2000
    1.9001    1.9696    0.0000 O   0  0  0  0  0  0  0  0  0
    2.6146    1.5571    0.0000 C   0  0  0  0  0  0  0  0  0
    2.6146    0.7321    0.0000 N   0  0  0  0  0  0  0  0  0
    1.9001    0.3196    0.0000 C   0  0  0  0  0  0  0  0  0
    1.9001   -0.5054    0.0000 N   0  0  0  0  0  0  0  0  0
    2.6146   -0.9179    0.0000 C   0  0  0  0  0  0  0  0  0
    2.6146   -1.7429    0.0000 C   0  0  0  0  0  0  0  0  0
    1.9001   -2.1554    0.0000 N   0  0  0  0  0  0  0  0  0
    1.1856   -1.7429    0.0000 C   0  0  0  0  0  0  0  0  0
    1.1856   -0.9179    0.0000 C   0  0  0  0  0  0  0  0  0
    1.9001   -2.9804    0.0000 C   0  0  0  0  0  0  0  0  0
    2.6146   -3.3929    0.0000 C   0  0  0  0  0  0  0  0  0
    2.6146   -4.2179    0.0000 C   0  0  0  0  0  0  0  0  0
    1.9001   -4.6304    0.0000 C   0  0  0  0  0  0  0  0  0
    1.1856   -4.2179    0.0000 C   0  0  0  0  0  0  0  0  0
    1.1856   -3.3929    0.0000 C   0  0  0  0  0  0  0  0  0
    0.4712   -2.9804    0.0000 C   0  0  0  0  0  0  0  0  0
   -0.2433   -2.5679    0.0000 N   0  0  0  0  0  0  0  0  0
    3.3290    1.9696    0.0000 C   0  0  0  0  0  0  0  0  0
    3.3290    2.7946    0.0000 C   0  0  0  0  0  0  0  0  0
    4.0435    3.2071    0.0000 C   0  0  0  0  0  0  0  0  0
    4.7580    2.7946    0.0000 C   0  0  0  0  0  0  0  0  0
    4.7580    1.9696    0.0000 C   0  0  0  0  0  0  0  0  0
    4.0435    1.5571    0.0000 C   0  0  0  0  0  0  0  0  0
    5.4725    3.2071    0.0000 C   0  0  0  0  0  0  0  0  0
  1  2  2  0  0  0  0
  2  3  1  0  0  0  0
  2 19  1  0  0  0  0
  3  4  1  0  0  0  0
  4  5  1  0  0  0  0
  5  6  1  0  0  0  0
  5 10  1  0  0  0  0
  6  7  1  0  0  0  0
  7  8  1  0  0  0  0
  8  9  1  0  0  0  0
  8 11  1  0  0  0  0
  9 10  1  0  0  0  0
 11 12  4  0  0  0  0
 11 16  4  0  0  0  0
 12 13  4  0  0  0  0
 13 14  4  0  0  0  0
 14 15  4  0  0  0  0
 15 16  4  0  0  0  0
 16 17  1  0  0  0  0
 17 18  3  0  0  0  0
 19 20  4  0  0  0  0
 19 24  4  0  0  0  0
 20 21  4  0  0  0  0
 21 22  4  0  0  0  0
 22 23  4  0  0  0  0
 22 25  1  0  0  0  0
 23 24  4  0  0  0  0
M  END
>  <Name_Molregno>
75330

>  <DOPAMINE D2>
6.18

>  <DOPAMINE D4>
8.55

$$$$
75331
  Marvin  02231216192D 0   1.00000     0.00000     0

 25 27  0  0  0  0  0  0  0  0999 V2000
   -0.6384   -0.1821    0.0000 O   0  0  0  0  0  0  0  0  0
    0.0760    0.2304    0.0000 C   0  0  0  0  0  0  0  0  0
   -0.6384   -1.0071    0.0000 C   0  0  0  0  0  0  0  0  0
    0.0760   -1.4196    0.0000 C   0  0  0  0  0  0  0  0  0
    0.0760   -2.2446    0.0000 C   0  0  0  0  0  0  0  0  0
   -0.6384   -2.6571    0.0000 C   0  0  0  0  0  0  0  0  0
   -1.3529   -2.2446    0.0000 C   0  0  0  0  0  0  0  0  0
   -1.3529   -1.4196    0.0000 C   0  0  0  0  0  0  0  0  0
   -2.0674   -1.0071    0.0000 N   0  0  0  0  0  0  0  0  0
   -2.7818   -1.4196    0.0000 C   0  0  0  0  0  0  0  0  0
   -3.4963   -1.0071    0.0000 C   0  0  0  0  0  0  0  0  0
   -3.4963   -0.1821    0.0000 N   0  0  0  0  0  0  0  0  0
   -2.7818    0.2304    0.0000 C   0  0  0  0  0  0  0  0  0
   -2.0674   -0.1821    0.0000 C   0  0  0  0  0  0  0  0  0
   -4.2108    0.2304    0.0000 C   0  0  0  0  0  0  0  0  0
   -4.2108    1.0554    0.0000 N   0  0  0  0  0  0  0  0  0
   -4.9253    1.4679    0.0000 C   0  0  0  0  0  0  0  0  0
   -5.6397    1.0554    0.0000 O   0  0  0  0  0  0  0  0  0
   -4.9253    2.2929    0.0000 C   0  0  0  0  0  0  0  0  0
   -5.6397    2.7054    0.0000 C   0  0  0  0  0  0  0  0  0
   -5.6397    3.5304    0.0000 C   0  0  0  0  0  0  0  0  0
   -4.9253    3.9429    0.0000 C   0  0  0  0  0  0  0  0  0
   -4.2108    3.5304    0.0000 C   0  0  0  0  0  0  0  0  0
   -4.2108    2.7054    0.0000 C   0  0  0  0  0  0  0  0  0
   -4.9253    4.7679    0.0000 C   0  0  0  0  0  0  0  0  0
  1  2  1  0  0  0  0
  1  3  1  0  0  0  0
  3  4  4  0  0  0  0
  3  8  4  0  0  0  0
  4  5  4  0  0  0  0
  5  6  4  0  0  0  0
  6  7  4  0  0  0  0
  7  8  4  0  0  0  0
  8  9  1  0  0  0  0
  9 10  1  0  0  0  0
  9 14  1  0  0  0  0
 10 11  1  0  0  0  0
 11 12  1  0  0  0  0
 12 13  1  0  0  0  0
 12 15  1  0  0  0  0
 13 14  1  0  0  0  0
 15 16  1  0  0  0  0
 16 17  1  0  0  0  0
 17 18  2  0  0  0  0
 17 19  1  0  0  0  0
 19 20  4  0  0  0  0
 19 24  4  0  0  0  0
 20 21  4  0  0  0  0
 21 22  4  0  0  0  0
 22 23  4  0  0  0  0
 22 25  1  0  0  0  0
 23 24  4  0  0  0  0
M  END
>  <Name_Molregno>
75331

>  <DOPAMINE D2>
6.65

>  <DOPAMINE D4>
8.29

$$$$
75356
  Marvin  02231216192D 0   1.00000     0.00000     0

 25 27  0  0  0  0  0  0  0  0999 V2000
    3.3349    3.7441    0.0000 Cl  0  0  0  0  0  0  0  0  0
    3.3349    2.9191    0.0000 C   0  0  0  0  0  0  0  0  0
    4.0494    2.5066    0.0000 C   0  0  0  0  0  0  0  0  0
    4.0494    1.6816    0.0000 C   0  0  0  0  0  0  0  0  0
    3.3349    1.2691    0.0000 C   0  0  0  0  0  0  0  0  0
    2.6204    1.6816    0.0000 C   0  0  0  0  0  0  0  0  0
    2.6204    2.5066    0.0000 C   0  0  0  0  0  0  0  0  0
    4.7638    1.2691    0.0000 C   0  0  0  0  0  0  0  0  0
    5.4783    1.6816    0.0000 O   0  0  0  0  0  0  0  0  0
    4.7638    0.4441    0.0000 N   0  0  0  0  0  0  0  0  0
    5.4783    0.0316    0.0000 C   0  0  0  0  0  0  0  0  0
    5.4783   -0.7934    0.0000 N   0  0  0  0  0  0  0  0  0
    6.1928   -1.2059    0.0000 C   0  0  0  0  0  0  0  0  0
    6.1928   -2.0309    0.0000 C   0  0  0  0  0  0  0  0  0
    5.4783   -2.4434    0.0000 N   0  0  0  0  0  0  0  0  0
    4.7638   -2.0309    0.0000 C   0  0  0  0  0  0  0  0  0
    4.7638   -1.2059    0.0000 C   0  0  0  0  0  0  0  0  0
    5.4783   -3.2684    0.0000 C   0  0  0  0  0  0  0  0  0
    6.1928   -3.6809    0.0000 C   0  0  0  0  0  0  0  0  0
    6.1928   -4.5059    0.0000 C   0  0  0  0  0  0  0  0  0
    5.4783   -4.9184    0.0000 C   0  0  0  0  0  0  0  0  0
    4.7638   -4.5059    0.0000 C   0  0  0  0  0  0  0  0  0
    4.7638   -3.6809    0.0000 C   0  0  0  0  0  0  0  0  0
    4.0494   -3.2684    0.0000 O   0  0  0  0  0  0  0  0  0
    3.3349   -3.6809    0.0000 C   0  0  0  0  0  0  0  0  0
  1  2  1  0  0  0  0
  2  3  4  0  0  0  0
  2  7  4  0  0  0  0
  3  4  4  0  0  0  0
  4  5  4  0  0  0  0
  4  8  1  0  0  0  0
  5  6  4  0  0  0  0
  6  7  4  0  0  0  0
  8  9  2  0  0  0  0
  8 10  1  0  0  0  0
 10 11  1  0  0  0  0
 11 12  1  0  0  0  0
 12 13  1  0  0  0  0
 12 17  1  0  0  0  0
 13 14  1  0  0  0  0
 14 15  1  0  0  0  0
 15 16  1  0  0  0  0
 15 18  1  0  0  0  0
 16 17  1  0  0  0  0
 18 19  4  0  0  0  0
 18 23  4  0  0  0  0
 19 20  4  0  0  0  0
 20 21  4  0  0  0  0
 21 22  4  0  0  0  0
 22 23  4  0  0  0  0
 23 24  1  0  0  0  0
 24 25  1  0  0  0  0
M  END
>  <Name_Molregno>
75356

>  <DOPAMINE D2>
6.1

>  <DOPAMINE D4>
7.82

$$$$
75803
  Marvin  02231216192D 0   1.00000     0.00000     0

 24 26  0  0  0  0  0  0  0  0999 V2000
   -0.6014   -1.1712    0.0000 Cl  0  0  0  0  0  0  0  0  0
   -0.6014   -1.9962    0.0000 C   0  0  0  0  0  0  0  0  0
    0.1131   -2.4087    0.0000 C   0  0  0  0  0  0  0  0  0
    0.1131   -3.2337    0.0000 C   0  0  0  0  0  0  0  0  0
   -0.6014   -3.6462    0.0000 C   0  0  0  0  0  0  0  0  0
   -1.3159   -3.2337    0.0000 C   0  0  0  0  0  0  0  0  0
   -1.3159   -2.4087    0.0000 C   0  0  0  0  0  0  0  0  0
   -2.0303   -1.9962    0.0000 N   0  0  0  0  0  0  0  0  0
   -2.7448   -2.4088    0.0000 C   0  0  0  0  0  0  0  0  0
   -3.4593   -1.9963    0.0000 C   0  0  0  0  0  0  0  0  0
   -3.4593   -1.1713    0.0000 N   0  0  0  0  0  0  0  0  0
   -2.7448   -0.7588    0.0000 C   0  0  0  0  0  0  0  0  0
   -2.0303   -1.1712    0.0000 C   0  0  0  0  0  0  0  0  0
   -4.1737   -0.7588    0.0000 C   0  0  0  0  0  0  0  0  0
   -4.1737    0.0662    0.0000 N   0  0  0  0  0  0  0  0  0
   -4.8882    0.4787    0.0000 C   0  0  0  0  0  0  0  0  0
   -5.6027    0.0662    0.0000 O   0  0  0  0  0  0  0  0  0
   -4.8882    1.3037    0.0000 C   0  0  0  0  0  0  0  0  0
   -5.6027    1.7162    0.0000 C   0  0  0  0  0  0  0  0  0
   -5.6027    2.5412    0.0000 C   0  0  0  0  0  0  0  0  0
   -4.8882    2.9537    0.0000 C   0  0  0  0  0  0  0  0  0
   -4.1737    2.5412    0.0000 C   0  0  0  0  0  0  0  0  0
   -4.1737    1.7162    0.0000 C   0  0  0  0  0  0  0  0  0
   -6.3172    2.9537    0.0000 C   0  0  0  0  0  0  0  0  0
  1  2  1  0  0  0  0
  2  3  4  0  0  0  0
  2  7  4  0  0  0  0
  3  4  4  0  0  0  0
  4  5  4  0  0  0  0
  5  6  4  0  0  0  0
  6  7  4  0  0  0  0
  7  8  1  0  0  0  0
  8  9  1  0  0  0  0
  8 13  1  0  0  0  0
  9 10  1  0  0  0  0
 10 11  1  0  0  0  0
 11 12  1  0  0  0  0
 11 14  1  0  0  0  0
 12 13  1  0  0  0  0
 14 15  1  0  0  0  0
 15 16  1  0  0  0  0
 16 17  2  0  0  0  0
 16 18  1  0  0  0  0
 18 19  4  0  0  0  0
 18 23  4  0  0  0  0
 19 20  4  0  0  0  0
 20 21  4  0  0  0  0
 20 24  1  0  0  0  0
 21 22  4  0  0  0  0
 22 23  4  0  0  0  0
M  END
>  <Name_Molregno>
75803

>  <DOPAMINE D2>
6.11

>  <DOPAMINE D4>
7.69

$$$$
75806
  Marvin  02231216192D 0   1.00000     0.00000     0

 23 25  0  0  0  0  0  0  0  0999 V2000
   -0.5437   -1.0578    0.0000 Cl  0  0  0  0  0  0  0  0  0
   -0.5437   -1.8828    0.0000 C   0  0  0  0  0  0  0  0  0
    0.1708   -2.2953    0.0000 C   0  0  0  0  0  0  0  0  0
    0.1708   -3.1203    0.0000 C   0  0  0  0  0  0  0  0  0
   -0.5437   -3.5328    0.0000 C   0  0  0  0  0  0  0  0  0
   -1.2581   -3.1203    0.0000 C   0  0  0  0  0  0  0  0  0
   -1.2581   -2.2953    0.0000 C   0  0  0  0  0  0  0  0  0
   -1.9726   -1.8828    0.0000 N   0  0  0  0  0  0  0  0  0
   -2.6871   -2.2953    0.0000 C   0  0  0  0  0  0  0  0  0
   -3.4015   -1.8828    0.0000 C   0  0  0  0  0  0  0  0  0
   -3.4015   -1.0578    0.0000 N   0  0  0  0  0  0  0  0  0
   -2.6871   -0.6453    0.0000 C   0  0  0  0  0  0  0  0  0
   -1.9726   -1.0578    0.0000 C   0  0  0  0  0  0  0  0  0
   -4.1160   -0.6453    0.0000 C   0  0  0  0  0  0  0  0  0
   -4.1160    0.1797    0.0000 N   0  0  0  0  0  0  0  0  0
   -4.8305    0.5922    0.0000 C   0  0  0  0  0  0  0  0  0
   -5.5449    0.1797    0.0000 O   0  0  0  0  0  0  0  0  0
   -4.8305    1.4172    0.0000 C   0  0  0  0  0  0  0  0  0
   -5.5449    1.8297    0.0000 C   0  0  0  0  0  0  0  0  0
   -5.5449    2.6547    0.0000 C   0  0  0  0  0  0  0  0  0
   -4.8305    3.0672    0.0000 C   0  0  0  0  0  0  0  0  0
   -4.1160    2.6547    0.0000 C   0  0  0  0  0  0  0  0  0
   -4.1160    1.8297    0.0000 C   0  0  0  0  0  0  0  0  0
  1  2  1  0  0  0  0
  2  3  4  0  0  0  0
  2  7  4  0  0  0  0
  3  4  4  0  0  0  0
  4  5  4  0  0  0  0
  5  6  4  0  0  0  0
  6  7  4  0  0  0  0
  7  8  1  0  0  0  0
  8  9  1  0  0  0  0
  8 13  1  0  0  0  0
  9 10  1  0  0  0  0
 10 11  1  0  0  0  0
 11 12  1  0  0  0  0
 11 14  1  0  0  0  0
 12 13  1  0  0  0  0
 14 15  1  0  0  0  0
 15 16  1  0  0  0  0
 16 17  2  0  0  0  0
 16 18  1  0  0  0  0
 18 19  4  0  0  0  0
 18 23  4  0  0  0  0
 19 20  4  0  0  0  0
 20 21  4  0  0  0  0
 21 22  4  0  0  0  0
 22 23  4  0  0  0  0
M  END
>  <Name_Molregno>
75806

>  <DOPAMINE D2>
6.29

>  <DOPAMINE D4>
7.23

$$$$
75809
  Marvin  02231216192D 0   1.00000     0.00000     0

 25 27  0  0  0  0  0  0  0  0999 V2000
   -0.5770   -1.1315    0.0000 O   0  0  0  0  0  0  0  0  0
    0.1375   -0.7190    0.0000 C   0  0  0  0  0  0  0  0  0
   -0.5770   -1.9565    0.0000 C   0  0  0  0  0  0  0  0  0
    0.1375   -2.3690    0.0000 C   0  0  0  0  0  0  0  0  0
    0.1375   -3.1940    0.0000 C   0  0  0  0  0  0  0  0  0
   -0.5770   -3.6065    0.0000 C   0  0  0  0  0  0  0  0  0
   -1.2915   -3.1940    0.0000 C   0  0  0  0  0  0  0  0  0
   -1.2915   -2.3690    0.0000 C   0  0  0  0  0  0  0  0  0
   -2.0059   -1.9565    0.0000 N   0  0  0  0  0  0  0  0  0
   -2.7204   -2.3690    0.0000 C   0  0  0  0  0  0  0  0  0
   -3.4349   -1.9565    0.0000 C   0  0  0  0  0  0  0  0  0
   -3.4349   -1.1315    0.0000 N   0  0  0  0  0  0  0  0  0
   -2.7204   -0.7190    0.0000 C   0  0  0  0  0  0  0  0  0
   -2.0059   -1.1315    0.0000 C   0  0  0  0  0  0  0  0  0
   -4.1494   -0.7190    0.0000 C   0  0  0  0  0  0  0  0  0
   -4.1494    0.1060    0.0000 N   0  0  0  0  0  0  0  0  0
   -4.8638    0.5185    0.0000 C   0  0  0  0  0  0  0  0  0
   -5.5783    0.1060    0.0000 O   0  0  0  0  0  0  0  0  0
   -4.8638    1.3435    0.0000 C   0  0  0  0  0  0  0  0  0
   -5.5783    1.7560    0.0000 C   0  0  0  0  0  0  0  0  0
   -5.5783    2.5810    0.0000 C   0  0  0  0  0  0  0  0  0
   -4.8638    2.9935    0.0000 C   0  0  0  0  0  0  0  0  0
   -4.1494    2.5810    0.0000 C   0  0  0  0  0  0  0  0  0
   -4.1494    1.7560    0.0000 C   0  0  0  0  0  0  0  0  0
   -6.2928    2.9935    0.0000 C   0  0  0  0  0  0  0  0  0
  1  2  1  0  0  0  0
  1  3  1  0  0  0  0
  3  4  4  0  0  0  0
  3  8  4  0  0  0  0
  4  5  4  0  0  0  0
  5  6  4  0  0  0  0
  6  7  4  0  0  0  0
  7  8  4  0  0  0  0
  8  9  1  0  0  0  0
  9 10  1  0  0  0  0
  9 14  1  0  0  0  0
 10 11  1  0  0  0  0
 11 12  1  0  0  0  0
 12 13  1  0  0  0  0
 12 15  1  0  0  0  0
 13 14  1  0  0  0  0
 15 16  1  0  0  0  0
 16 17  1  0  0  0  0
 17 18  2  0  0  0  0
 17 19  1  0  0  0  0
 19 20  4  0  0  0  0
 19 24  4  0  0  0  0
 20 21  4  0  0  0  0
 21 22  4  0  0  0  0
 21 25  1  0  0  0  0
 22 23  4  0  0  0  0
 23 24  4  0  0  0  0
M  END
>  <Name_Molregno>
75809

>  <DOPAMINE D2>
5.85

>  <DOPAMINE D4>
8.03

$$$$
75846
  Marvin  02231216192D 0   1.00000     0.00000     0

 24 26  0  0  0  0  0  0  0  0999 V2000
    2.1819    2.2639    0.0000 O   0  0  0  0  0  0  0  0  0
    2.8963    1.8514    0.0000 C   0  0  0  0  0  0  0  0  0
    2.8963    1.0264    0.0000 N   0  0  0  0  0  0  0  0  0
    2.1819    0.6139    0.0000 C   0  0  0  0  0  0  0  0  0
    2.1819   -0.2111    0.0000 N   0  0  0  0  0  0  0  0  0
    2.8963   -0.6236    0.0000 C   0  0  0  0  0  0  0  0  0
    2.8963   -1.4486    0.0000 C   0  0  0  0  0  0  0  0  0
    2.1819   -1.8611    0.0000 N   0  0  0  0  0  0  0  0  0
    1.4674   -1.4486    0.0000 C   0  0  0  0  0  0  0  0  0
    1.4674   -0.6236    0.0000 C   0  0  0  0  0  0  0  0  0
    2.1819   -2.6861    0.0000 C   0  0  0  0  0  0  0  0  0
    2.8963   -3.0986    0.0000 C   0  0  0  0  0  0  0  0  0
    2.8963   -3.9236    0.0000 C   0  0  0  0  0  0  0  0  0
    2.1819   -4.3361    0.0000 C   0  0  0  0  0  0  0  0  0
    1.4674   -3.9236    0.0000 C   0  0  0  0  0  0  0  0  0
    1.4674   -3.0986    0.0000 C   0  0  0  0  0  0  0  0  0
    0.7529   -2.6861    0.0000 C   0  0  0  0  0  0  0  0  0
    0.0385   -2.2736    0.0000 N   0  0  0  0  0  0  0  0  0
    3.6108    2.2639    0.0000 C   0  0  0  0  0  0  0  0  0
    3.6108    3.0889    0.0000 C   0  0  0  0  0  0  0  0  0
    4.3253    3.5014    0.0000 C   0  0  0  0  0  0  0  0  0
    5.0398    3.0889    0.0000 C   0  0  0  0  0  0  0  0  0
    5.0398    2.2639    0.0000 C   0  0  0  0  0  0  0  0  0
    4.3253    1.8514    0.0000 C   0  0  0  0  0  0  0  0  0
  1  2  2  0  0  0  0
  2  3  1  0  0  0  0
  2 19  1  0  0  0  0
  3  4  1  0  0  0  0
  4  5  1  0  0  0  0
  5  6  1  0  0  0  0
  5 10  1  0  0  0  0
  6  7  1  0  0  0  0
  7  8  1  0  0  0  0
  8  9  1  0  0  0  0
  8 11  1  0  0  0  0
  9 10  1  0  0  0  0
 11 12  4  0  0  0  0
 11 16  4  0  0  0  0
 12 13  4  0  0  0  0
 13 14  4  0  0  0  0
 14 15  4  0  0  0  0
 15 16  4  0  0  0  0
 16 17  1  0  0  0  0
 17 18  3  0  0  0  0
 19 20  4  0  0  0  0
 19 24  4  0  0  0  0
 20 21  4  0  0  0  0
 21 22  4  0  0  0  0
 22 23  4  0  0  0  0
 23 24  4  0  0  0  0
M  END
>  <Name_Molregno>
75846

>  <DOPAMINE D2>
5.45

>  <DOPAMINE D4>
7.6

$$$$
76131
  Marvin  02231216192D 0   1.00000     0.00000     0

 24 26  0  0  0  0  0  0  0  0999 V2000
   -0.6561   -1.2991    0.0000 Cl  0  0  0  0  0  0  0  0  0
   -0.6561   -2.1241    0.0000 C   0  0  0  0  0  0  0  0  0
    0.0584   -2.5366    0.0000 C   0  0  0  0  0  0  0  0  0
    0.0584   -3.3616    0.0000 C   0  0  0  0  0  0  0  0  0
   -0.6561   -3.7741    0.0000 C   0  0  0  0  0  0  0  0  0
   -1.3706   -3.3616    0.0000 C   0  0  0  0  0  0  0  0  0
   -1.3706   -2.5366    0.0000 C   0  0  0  0  0  0  0  0  0
   -2.0850   -2.1241    0.0000 N   0  0  0  0  0  0  0  0  0
   -2.7995   -2.5366    0.0000 C   0  0  0  0  0  0  0  0  0
   -3.5140   -2.1241    0.0000 C   0  0  0  0  0  0  0  0  0
   -3.5140   -1.2991    0.0000 N   0  0  0  0  0  0  0  0  0
   -2.7995   -0.8866    0.0000 C   0  0  0  0  0  0  0  0  0
   -2.0850   -1.2991    0.0000 C   0  0  0  0  0  0  0  0  0
   -4.2284   -0.8866    0.0000 C   0  0  0  0  0  0  0  0  0
   -4.2284   -0.0616    0.0000 N   0  0  0  0  0  0  0  0  0
   -4.9429    0.3509    0.0000 C   0  0  0  0  0  0  0  0  0
   -5.6574   -0.0616    0.0000 O   0  0  0  0  0  0  0  0  0
   -4.9429    1.1759    0.0000 C   0  0  0  0  0  0  0  0  0
   -5.6574    1.5884    0.0000 C   0  0  0  0  0  0  0  0  0
   -5.6574    2.4134    0.0000 C   0  0  0  0  0  0  0  0  0
   -4.9429    2.8259    0.0000 C   0  0  0  0  0  0  0  0  0
   -4.9429    3.6509    0.0000 Cl  0  0  0  0  0  0  0  0  0
   -4.2284    2.4134    0.0000 C   0  0  0  0  0  0  0  0  0
   -4.2284    1.5884    0.0000 C   0  0  0  0  0  0  0  0  0
  1  2  1  0  0  0  0
  2  3  4  0  0  0  0
  2  7  4  0  0  0  0
  3  4  4  0  0  0  0
  4  5  4  0  0  0  0
  5  6  4  0  0  0  0
  6  7  4  0  0  0  0
  7  8  1  0  0  0  0
  8  9  1  0  0  0  0
  8 13  1  0  0  0  0
  9 10  1  0  0  0  0
 10 11  1  0  0  0  0
 11 12  1  0  0  0  0
 11 14  1  0  0  0  0
 12 13  1  0  0  0  0
 14 15  1  0  0  0  0
 15 16  1  0  0  0  0
 16 17  2  0  0  0  0
 16 18  1  0  0  0  0
 18 19  4  0  0  0  0
 18 24  4  0  0  0  0
 19 20  4  0  0  0  0
 20 21  4  0  0  0  0
 21 22  1  0  0  0  0
 21 23  4  0  0  0  0
 23 24  4  0  0  0  0
M  END
>  <Name_Molregno>
76131

>  <DOPAMINE D2>
6.74

>  <DOPAMINE D4>
8.18

$$$$
76169
  Marvin  02231216192D 0   1.00000     0.00000     0

 25 27  0  0  0  0  0  0  0  0999 V2000
    6.6242    4.9015    0.0000 Cl  0  0  0  0  0  0  0  0  0
    6.6242    4.0765    0.0000 C   0  0  0  0  0  0  0  0  0
    7.3387    3.6640    0.0000 C   0  0  0  0  0  0  0  0  0
    7.3387    2.8390    0.0000 C   0  0  0  0  0  0  0  0  0
    6.6242    2.4265    0.0000 C   0  0  0  0  0  0  0  0  0
    5.9098    2.8390    0.0000 C   0  0  0  0  0  0  0  0  0
    5.9098    3.6640    0.0000 C   0  0  0  0  0  0  0  0  0
    6.6242    1.6015    0.0000 C   0  0  0  0  0  0  0  0  0
    7.3387    1.1890    0.0000 O   0  0  0  0  0  0  0  0  0
    5.9098    1.1890    0.0000 N   0  0  0  0  0  0  0  0  0
    5.9098    0.3640    0.0000 C   0  0  0  0  0  0  0  0  0
    5.1953   -0.0485    0.0000 N   0  0  0  0  0  0  0  0  0
    5.1953   -0.8735    0.0000 C   0  0  0  0  0  0  0  0  0
    4.4808   -1.2860    0.0000 C   0  0  0  0  0  0  0  0  0
    3.7664   -0.8735    0.0000 N   0  0  0  0  0  0  0  0  0
    3.7664   -0.0485    0.0000 C   0  0  0  0  0  0  0  0  0
    4.4808    0.3640    0.0000 C   0  0  0  0  0  0  0  0  0
    3.0519   -1.2860    0.0000 C   0  0  0  0  0  0  0  0  0
    3.0519   -2.1110    0.0000 C   0  0  0  0  0  0  0  0  0
    2.3374   -2.5235    0.0000 C   0  0  0  0  0  0  0  0  0
    1.6229   -2.1110    0.0000 C   0  0  0  0  0  0  0  0  0
    1.6229   -1.2860    0.0000 C   0  0  0  0  0  0  0  0  0
    2.3374   -0.8735    0.0000 C   0  0  0  0  0  0  0  0  0
    2.3374   -0.0485    0.0000 O   0  0  0  0  0  0  0  0  0
    1.6229    0.3640    0.0000 C   0  0  0  0  0  0  0  0  0
  1  2  1  0  0  0  0
  2  3  4  0  0  0  0
  2  7  4  0  0  0  0
  3  4  4  0  0  0  0
  4  5  4  0  0  0  0
  5  6  4  0  0  0  0
  5  8  1  0  0  0  0
  6  7  4  0  0  0  0
  8  9  2  0  0  0  0
  8 10  1  0  0  0  0
 10 11  1  0  0  0  0
 11 12  1  0  0  0  0
 12 13  1  0  0  0  0
 12 17  1  0  0  0  0
 13 14  1  0  0  0  0
 14 15  1  0  0  0  0
 15 16  1  0  0  0  0
 15 18  1  0  0  0  0
 16 17  1  0  0  0  0
 18 19  4  0  0  0  0
 18 23  4  0  0  0  0
 19 20  4  0  0  0  0
 20 21  4  0  0  0  0
 21 22  4  0  0  0  0
 22 23  4  0  0  0  0
 23 24  1  0  0  0  0
 24 25  1  0  0  0  0
M  END
>  <Name_Molregno>
76169

>  <DOPAMINE D2>
6.52

>  <DOPAMINE D4>
8.15

$$$$
76172
  Marvin  02231216192D 0   1.00000     0.00000     0

 25 27  0  0  0  0  0  0  0  0999 V2000
    3.3085    3.7352    0.0000 Cl  0  0  0  0  0  0  0  0  0
    3.3085    2.9102    0.0000 C   0  0  0  0  0  0  0  0  0
    4.0230    2.4977    0.0000 C   0  0  0  0  0  0  0  0  0
    4.0230    1.6727    0.0000 C   0  0  0  0  0  0  0  0  0
    3.3085    1.2602    0.0000 C   0  0  0  0  0  0  0  0  0
    2.5940    1.6727    0.0000 C   0  0  0  0  0  0  0  0  0
    2.5940    2.4977    0.0000 C   0  0  0  0  0  0  0  0  0
    4.7374    1.2602    0.0000 C   0  0  0  0  0  0  0  0  0
    5.4519    1.6727    0.0000 O   0  0  0  0  0  0  0  0  0
    4.7374    0.4352    0.0000 N   0  0  0  0  0  0  0  0  0
    5.4519    0.0227    0.0000 C   0  0  0  0  0  0  0  0  0
    5.4519   -0.8023    0.0000 N   0  0  0  0  0  0  0  0  0
    6.1664   -1.2148    0.0000 C   0  0  0  0  0  0  0  0  0
    6.1664   -2.0398    0.0000 C   0  0  0  0  0  0  0  0  0
    5.4519   -2.4523    0.0000 N   0  0  0  0  0  0  0  0  0
    4.7374   -2.0398    0.0000 C   0  0  0  0  0  0  0  0  0
    4.7374   -1.2148    0.0000 C   0  0  0  0  0  0  0  0  0
    5.4519   -3.2773    0.0000 C   0  0  0  0  0  0  0  0  0
    6.1664   -3.6898    0.0000 C   0  0  0  0  0  0  0  0  0
    6.1664   -4.5148    0.0000 C   0  0  0  0  0  0  0  0  0
    5.4519   -4.9273    0.0000 C   0  0  0  0  0  0  0  0  0
    4.7374   -4.5148    0.0000 C   0  0  0  0  0  0  0  0  0
    4.7374   -3.6898    0.0000 C   0  0  0  0  0  0  0  0  0
    4.0230   -3.2773    0.0000 C   0  0  0  0  0  0  0  0  0
    3.3085   -2.8648    0.0000 N   0  0  0  0  0  0  0  0  0
  1  2  1  0  0  0  0
  2  3  4  0  0  0  0
  2  7  4  0  0  0  0
  3  4  4  0  0  0  0
  4  5  4  0  0  0  0
  4  8  1  0  0  0  0
  5  6  4  0  0  0  0
  6  7  4  0  0  0  0
  8  9  2  0  0  0  0
  8 10  1  0  0  0  0
 10 11  1  0  0  0  0
 11 12  1  0  0  0  0
 12 13  1  0  0  0  0
 12 17  1  0  0  0  0
 13 14  1  0  0  0  0
 14 15  1  0  0  0  0
 15 16  1  0  0  0  0
 15 18  1  0  0  0  0
 16 17  1  0  0  0  0
 18 19  4  0  0  0  0
 18 23  4  0  0  0  0
 19 20  4  0  0  0  0
 20 21  4  0  0  0  0
 21 22  4  0  0  0  0
 22 23  4  0  0  0  0
 23 24  1  0  0  0  0
 24 25  3  0  0  0  0
M  END
>  <Name_Molregno>
76172

>  <DOPAMINE D2>
5.85

>  <DOPAMINE D4>
7.87

$$$$
76255
  Marvin  02231216192D 0   1.00000     0.00000     0

 25 27  0  0  0  0  0  0  0  0999 V2000
    6.5675    4.9039    0.0000 Cl  0  0  0  0  0  0  0  0  0
    6.5675    4.0789    0.0000 C   0  0  0  0  0  0  0  0  0
    7.2820    3.6664    0.0000 C   0  0  0  0  0  0  0  0  0
    7.2820    2.8414    0.0000 C   0  0  0  0  0  0  0  0  0
    6.5675    2.4289    0.0000 C   0  0  0  0  0  0  0  0  0
    5.8530    2.8414    0.0000 C   0  0  0  0  0  0  0  0  0
    5.8530    3.6664    0.0000 C   0  0  0  0  0  0  0  0  0
    6.5675    1.6039    0.0000 C   0  0  0  0  0  0  0  0  0
    7.2820    1.1914    0.0000 O   0  0  0  0  0  0  0  0  0
    5.8530    1.1914    0.0000 N   0  0  0  0  0  0  0  0  0
    5.8530    0.3664    0.0000 C   0  0  0  0  0  0  0  0  0
    5.1386   -0.0461    0.0000 N   0  0  0  0  0  0  0  0  0
    5.1386   -0.8711    0.0000 C   0  0  0  0  0  0  0  0  0
    4.4241   -1.2836    0.0000 C   0  0  0  0  0  0  0  0  0
    3.7096   -0.8711    0.0000 N   0  0  0  0  0  0  0  0  0
    3.7096   -0.0461    0.0000 C   0  0  0  0  0  0  0  0  0
    4.4241    0.3664    0.0000 C   0  0  0  0  0  0  0  0  0
    2.9951   -1.2836    0.0000 C   0  0  0  0  0  0  0  0  0
    2.9951   -2.1086    0.0000 C   0  0  0  0  0  0  0  0  0
    2.2807   -2.5211    0.0000 C   0  0  0  0  0  0  0  0  0
    1.5662   -2.1086    0.0000 C   0  0  0  0  0  0  0  0  0
    1.5662   -1.2836    0.0000 C   0  0  0  0  0  0  0  0  0
    2.2807   -0.8711    0.0000 C   0  0  0  0  0  0  0  0  0
    2.2807   -0.0461    0.0000 C   0  0  0  0  0  0  0  0  0
    2.2807    0.7789    0.0000 N   0  0  0  0  0  0  0  0  0
  1  2  1  0  0  0  0
  2  3  4  0  0  0  0
  2  7  4  0  0  0  0
  3  4  4  0  0  0  0
  4  5  4  0  0  0  0
  5  6  4  0  0  0  0
  5  8  1  0  0  0  0
  6  7  4  0  0  0  0
  8  9  2  0  0  0  0
  8 10  1  0  0  0  0
 10 11  1  0  0  0  0
 11 12  1  0  0  0  0
 12 13  1  0  0  0  0
 12 17  1  0  0  0  0
 13 14  1  0  0  0  0
 14 15  1  0  0  0  0
 15 16  1  0  0  0  0
 15 18  1  0  0  0  0
 16 17  1  0  0  0  0
 18 19  4  0  0  0  0
 18 23  4  0  0  0  0
 19 20  4  0  0  0  0
 20 21  4  0  0  0  0
 21 22  4  0  0  0  0
 22 23  4  0  0  0  0
 23 24  1  0  0  0  0
 24 25  3  0  0  0  0
M  END
>  <Name_Molregno>
76255

>  <DOPAMINE D2>
6.13

>  <DOPAMINE D4>
8.34

$$$$
76290
  Marvin  02231216192D 0   1.00000     0.00000     0

 24 26  0  0  0  0  0  0  0  0999 V2000
   -0.5222   -0.0193    0.0000 O   0  0  0  0  0  0  0  0  0
    0.1923    0.3932    0.0000 C   0  0  0  0  0  0  0  0  0
   -0.5222   -0.8443    0.0000 C   0  0  0  0  0  0  0  0  0
    0.1923   -1.2568    0.0000 C   0  0  0  0  0  0  0  0  0
    0.1923   -2.0818    0.0000 C   0  0  0  0  0  0  0  0  0
   -0.5222   -2.4943    0.0000 C   0  0  0  0  0  0  0  0  0
   -1.2367   -2.0818    0.0000 C   0  0  0  0  0  0  0  0  0
   -1.2367   -1.2568    0.0000 C   0  0  0  0  0  0  0  0  0
   -1.9512   -0.8443    0.0000 N   0  0  0  0  0  0  0  0  0
   -2.6656   -1.2568    0.0000 C   0  0  0  0  0  0  0  0  0
   -3.3801   -0.8443    0.0000 C   0  0  0  0  0  0  0  0  0
   -3.3801   -0.0193    0.0000 N   0  0  0  0  0  0  0  0  0
   -2.6656    0.3932    0.0000 C   0  0  0  0  0  0  0  0  0
   -1.9512   -0.0193    0.0000 C   0  0  0  0  0  0  0  0  0
   -4.0946    0.3932    0.0000 C   0  0  0  0  0  0  0  0  0
   -4.0946    1.2182    0.0000 N   0  0  0  0  0  0  0  0  0
   -4.8090    1.6307    0.0000 C   0  0  0  0  0  0  0  0  0
   -5.5235    1.2182    0.0000 O   0  0  0  0  0  0  0  0  0
   -4.8090    2.4557    0.0000 C   0  0  0  0  0  0  0  0  0
   -5.5235    2.8682    0.0000 C   0  0  0  0  0  0  0  0  0
   -5.5235    3.6932    0.0000 C   0  0  0  0  0  0  0  0  0
   -4.8090    4.1057    0.0000 C   0  0  0  0  0  0  0  0  0
   -4.0946    3.6932    0.0000 C   0  0  0  0  0  0  0  0  0
   -4.0946    2.8682    0.0000 C   0  0  0  0  0  0  0  0  0
  1  2  1  0  0  0  0
  1  3  1  0  0  0  0
  3  4  4  0  0  0  0
  3  8  4  0  0  0  0
  4  5  4  0  0  0  0
  5  6  4  0  0  0  0
  6  7  4  0  0  0  0
  7  8  4  0  0  0  0
  8  9  1  0  0  0  0
  9 10  1  0  0  0  0
  9 14  1  0  0  0  0
 10 11  1  0  0  0  0
 11 12  1  0  0  0  0
 12 13  1  0  0  0  0
 12 15  1  0  0  0  0
 13 14  1  0  0  0  0
 15 16  1  0  0  0  0
 16 17  1  0  0  0  0
 17 18  2  0  0  0  0
 17 19  1  0  0  0  0
 19 20  4  0  0  0  0
 19 24  4  0  0  0  0
 20 21  4  0  0  0  0
 21 22  4  0  0  0  0
 22 23  4  0  0  0  0
 23 24  4  0  0  0  0
M  END
>  <Name_Molregno>
76290

>  <DOPAMINE D2>
5.67

>  <DOPAMINE D4>
7.59

$$$$
76365
  Marvin  02231216192D 0   1.00000     0.00000     0

 24 26  0  0  0  0  0  0  0  0999 V2000
   -0.6561   -1.2991    0.0000 Cl  0  0  0  0  0  0  0  0  0
   -0.6561   -2.1241    0.0000 C   0  0  0  0  0  0  0  0  0
    0.0584   -2.5366    0.0000 C   0  0  0  0  0  0  0  0  0
    0.0584   -3.3616    0.0000 C   0  0  0  0  0  0  0  0  0
   -0.6561   -3.7741    0.0000 C   0  0  0  0  0  0  0  0  0
   -1.3706   -3.3616    0.0000 C   0  0  0  0  0  0  0  0  0
   -1.3706   -2.5366    0.0000 C   0  0  0  0  0  0  0  0  0
   -2.0850   -2.1241    0.0000 N   0  0  0  0  0  0  0  0  0
   -2.7995   -2.5366    0.0000 C   0  0  0  0  0  0  0  0  0
   -3.5140   -2.1241    0.0000 C   0  0  0  0  0  0  0  0  0
   -3.5140   -1.2991    0.0000 N   0  0  0  0  0  0  0  0  0
   -2.7995   -0.8866    0.0000 C   0  0  0  0  0  0  0  0  0
   -2.0850   -1.2991    0.0000 C   0  0  0  0  0  0  0  0  0
   -4.2284   -0.8866    0.0000 C   0  0  0  0  0  0  0  0  0
   -4.2284   -0.0616    0.0000 N   0  0  0  0  0  0  0  0  0
   -4.9429    0.3509    0.0000 C   0  0  0  0  0  0  0  0  0
   -5.6574   -0.0616    0.0000 O   0  0  0  0  0  0  0  0  0
   -4.9429    1.1759    0.0000 C   0  0  0  0  0  0  0  0  0
   -5.6574    1.5884    0.0000 C   0  0  0  0  0  0  0  0  0
   -5.6574    2.4134    0.0000 C   0  0  0  0  0  0  0  0  0
   -4.9429    2.8259    0.0000 C   0  0  0  0  0  0  0  0  0
   -4.2284    2.4134    0.0000 C   0  0  0  0  0  0  0  0  0
   -4.2284    1.5884    0.0000 C   0  0  0  0  0  0  0  0  0
   -4.9429    3.6509    0.0000 C   0  0  0  0  0  0  0  0  0
  1  2  1  0  0  0  0
  2  3  4  0  0  0  0
  2  7  4  0  0  0  0
  3  4  4  0  0  0  0
  4  5  4  0  0  0  0
  5  6  4  0  0  0  0
  6  7  4  0  0  0  0
  7  8  1  0  0  0  0
  8  9  1  0  0  0  0
  8 13  1  0  0  0  0
  9 10  1  0  0  0  0
 10 11  1  0  0  0  0
 11 12  1  0  0  0  0
 11 14  1  0  0  0  0
 12 13  1  0  0  0  0
 14 15  1  0  0  0  0
 15 16  1  0  0  0  0
 16 17  2  0  0  0  0
 16 18  1  0  0  0  0
 18 19  4  0  0  0  0
 18 23  4  0  0  0  0
 19 20  4  0  0  0  0
 20 21  4  0  0  0  0
 21 22  4  0  0  0  0
 21 24  1  0  0  0  0
 22 23  4  0  0  0  0
M  END
>  <Name_Molregno>
76365

>  <DOPAMINE D2>
6.82

>  <DOPAMINE D4>
7.29

$$$$
88815
  Marvin  02231216192D 0   1.00000     0.00000     0

 14 15  0  0  1  0  0  0  0  0999 V2000
   -3.2072   -0.1654    0.0000 S   0  0  0  0  0  0  0  0  0
   -2.4226   -0.4204    0.0000 C   0  0  0  0  0  0  0  0  0
   -1.7081   -0.0079    0.0000 C   0  0  0  0  0  0  0  0  0
   -0.9937   -0.4204    0.0000 C   0  0  0  0  0  0  0  0  0
   -0.2792   -0.0079    0.0000 N   0  0  0  0  0  0  0  0  0
    0.4353   -0.4204    0.0000 C   0  0  0  0  0  0  0  0  0
    1.1498   -0.0079    0.0000 C   0  0  0  0  0  0  0  0  0
    1.8642   -0.4204    0.0000 C   0  0  0  0  0  0  0  0  0
   -0.9937   -1.2454    0.0000 C   0  0  0  0  0  0  0  0  0
   -1.7081   -1.6579    0.0000 C   0  0  0  0  0  0  0  0  0
   -2.4226   -1.2454    0.0000 C   0  0  0  0  0  0  0  0  0
   -3.2072   -1.5003    0.0000 N   0  0  0  0  0  0  0  0  0
   -3.6921   -0.8329    0.0000 C   0  0  0  0  0  0  0  0  0
   -4.5171   -0.8329    0.0000 N   0  0  0  0  0  0  0  0  0
  1  2  4  0  0  0  0
  1 13  4  0  0  0  0
  2  3  1  0  0  0  0
  2 11  4  0  0  0  0
  3  4  1  0  0  0  0
  4  5  1  0  0  0  0
  4  9  1  0  0  0  0
  5  6  1  0  0  0  0
  6  7  1  0  0  0  0
  7  8  1  0  0  0  0
  9 10  1  0  0  0  0
 10 11  1  0  0  0  0
 11 12  4  0  0  0  0
 12 13  4  0  0  0  0
 13 14  1  0  0  0  0
M  END
>  <Name_Molregno>
88815

>  <5-HT1A>
5.67

>  <5-HT1B>
5.26

>  <5-HT1D>
5.39

>  <5-HT1E>
5

>  <5-HT2A>
5

>  <5-HT2C>
5

>  <5-HT3>
5

>  <5-HT5>
5

>  <5-HT6>
5

>  <5-HT7>
5.93

>  <Alpha-1A>
5

>  <Alpha-1B>
5

>  <Alpha-2A>
6.44

>  <Alpha-2B>
6.68

>  <Alpha-2C>
6.14

>  <Beta-1>
5

>  <Beta-2>
5

>  <DOPAMINE D1>
5

>  <DOPAMINE D2>
6.55

>  <DOPAMINE D3>
8.51

>  <DOPAMINE D4>
7.4

>  <DOPAMINE D5>
5

>  <Dopamine transporter>
5

>  <HISTAMINE H1>
5

>  <HISTAMINE H2>
5.57

>  <HISTAMINE H4>
5

>  <Muscarinic acetylcholine receptor M1>
5

>  <Muscarinic acetylcholine receptor M2>
5

>  <Muscarinic acetylcholine receptor M3>
5

>  <Muscarinic acetylcholine receptor M4>
5

>  <Muscarinic acetylcholine receptor M5>
5

>  <Norepinephrine transporter>
5

>  <Serotonin transporter>
5

$$$$
90093
  Marvin  02231216192D 0   1.00000     0.00000     0

 24 27  0  0  0  0  0  0  0  0999 V2000
    0.6013   -1.0708    0.0000 N   0  0  0  0  0  0  0  0  0
    0.3463   -1.8554    0.0000 C   0  0  0  0  0  0  0  0  0
   -0.4787   -1.8554    0.0000 C   0  0  0  0  0  0  0  0  0
   -0.7336   -1.0708    0.0000 C   0  0  0  0  0  0  0  0  0
   -0.0662   -0.5859    0.0000 C   0  0  0  0  0  0  0  0  0
   -0.0662    0.2391    0.0000 C   0  0  0  0  0  0  0  0  0
    0.6483    0.6516    0.0000 N   0  0  0  0  0  0  0  0  0
    0.6483    1.4766    0.0000 C   0  0  0  0  0  0  0  0  0
    1.3628    1.8891    0.0000 C   0  0  0  0  0  0  0  0  0
    2.0772    1.4766    0.0000 N   0  0  0  0  0  0  0  0  0
    2.0772    0.6516    0.0000 C   0  0  0  0  0  0  0  0  0
    1.3628    0.2391    0.0000 C   0  0  0  0  0  0  0  0  0
    2.7917    1.8891    0.0000 C   0  0  0  0  0  0  0  0  0
    2.7917    2.7141    0.0000 C   0  0  0  0  0  0  0  0  0
    3.5062    3.1266    0.0000 C   0  0  0  0  0  0  0  0  0
    4.2206    2.7141    0.0000 C   0  0  0  0  0  0  0  0  0
    4.2206    1.8891    0.0000 C   0  0  0  0  0  0  0  0  0
    3.5062    1.4766    0.0000 C   0  0  0  0  0  0  0  0  0
   -0.9636   -2.5228    0.0000 C   0  0  0  0  0  0  0  0  0
   -0.6281   -3.2765    0.0000 C   0  0  0  0  0  0  0  0  0
   -1.1130   -3.9440    0.0000 C   0  0  0  0  0  0  0  0  0
   -1.9335   -3.8577    0.0000 C   0  0  0  0  0  0  0  0  0
   -2.2690   -3.1040    0.0000 C   0  0  0  0  0  0  0  0  0
   -1.7841   -2.4366    0.0000 C   0  0  0  0  0  0  0  0  0
  1  2  4  0  0  0  0
  1  5  4  0  0  0  0
  2  3  4  0  0  0  0
  3  4  4  0  0  0  0
  3 19  1  0  0  0  0
  4  5  4  0  0  0  0
  5  6  1  0  0  0  0
  6  7  1  0  0  0  0
  7  8  1  0  0  0  0
  7 12  1  0  0  0  0
  8  9  1  0  0  0  0
  9 10  1  0  0  0  0
 10 11  1  0  0  0  0
 10 13  1  0  0  0  0
 11 12  1  0  0  0  0
 13 14  4  0  0  0  0
 13 18  4  0  0  0  0
 14 15  4  0  0  0  0
 15 16  4  0  0  0  0
 16 17  4  0  0  0  0
 17 18  4  0  0  0  0
 19 20  4  0  0  0  0
 19 24  4  0  0  0  0
 20 21  4  0  0  0  0
 21 22  4  0  0  0  0
 22 23  4  0  0  0  0
 23 24  4  0  0  0  0
M  STY  1   1 DAT
M  SAL   1  1   1
M  SDT   1 MRV_IMPLICIT_H                                        
M  SDD   1     0.0000    0.0000    DR    ALL  0       0  
M  SED   1 IMPL_H1
M  END
>  <Name_Molregno>
90093

>  <DOPAMINE D2>
6.7

>  <DOPAMINE D3>
6.29

>  <DOPAMINE D4>
7.92

$$$$
90660
  Marvin  02231216192D 0   1.00000     0.00000     0

 27 30  0  0  0  0  0  0  0  0999 V2000
    6.2464    6.3118    0.0000 Cl  0  0  0  0  0  0  0  0  0
    6.2464    5.4868    0.0000 C   0  0  0  0  0  0  0  0  0
    6.9608    5.0743    0.0000 C   0  0  0  0  0  0  0  0  0
    6.9608    4.2493    0.0000 C   0  0  0  0  0  0  0  0  0
    6.2464    3.8368    0.0000 C   0  0  0  0  0  0  0  0  0
    5.5319    4.2493    0.0000 C   0  0  0  0  0  0  0  0  0
    5.5319    5.0743    0.0000 C   0  0  0  0  0  0  0  0  0
    6.2464    3.0118    0.0000 C   0  0  0  0  0  0  0  0  0
    6.9138    2.5269    0.0000 O   0  0  0  0  0  0  0  0  0
    6.6589    1.7423    0.0000 N   0  0  0  0  0  0  0  0  0
    5.8339    1.7423    0.0000 C   0  0  0  0  0  0  0  0  0
    5.3490    1.0748    0.0000 C   0  0  0  0  0  0  0  0  0
    5.6845    0.3212    0.0000 C   0  0  0  0  0  0  0  0  0
    5.1996   -0.3463    0.0000 C   0  0  0  0  0  0  0  0  0
    4.3791   -0.2600    0.0000 N   0  0  0  0  0  0  0  0  0
    4.0436    0.4936    0.0000 C   0  0  0  0  0  0  0  0  0
    4.5285    1.1611    0.0000 C   0  0  0  0  0  0  0  0  0
    3.8942   -0.9275    0.0000 C   0  0  0  0  0  0  0  0  0
    4.2297   -1.6812    0.0000 C   0  0  0  0  0  0  0  0  0
    3.7448   -2.3486    0.0000 C   0  0  0  0  0  0  0  0  0
    4.0804   -3.1023    0.0000 C   0  0  0  0  0  0  0  0  0
    3.5955   -3.7697    0.0000 C   0  0  0  0  0  0  0  0  0
    2.7750   -3.6835    0.0000 C   0  0  0  0  0  0  0  0  0
    2.4394   -2.9298    0.0000 C   0  0  0  0  0  0  0  0  0
    2.9243   -2.2624    0.0000 C   0  0  0  0  0  0  0  0  0
    5.5789    2.5269    0.0000 C   0  0  0  0  0  0  0  0  0
    4.7943    2.7818    0.0000 C   0  0  0  0  0  0  0  0  0
  1  2  1  0  0  0  0
  2  3  4  0  0  0  0
  2  7  4  0  0  0  0
  3  4  4  0  0  0  0
  4  5  4  0  0  0  0
  5  6  4  0  0  0  0
  5  8  1  0  0  0  0
  6  7  4  0  0  0  0
  8  9  4  0  0  0  0
  8 26  4  0  0  0  0
  9 10  4  0  0  0  0
 10 11  4  0  0  0  0
 11 12  1  0  0  0  0
 11 26  4  0  0  0  0
 12 13  1  0  0  0  0
 12 17  1  0  0  0  0
 13 14  1  0  0  0  0
 14 15  1  0  0  0  0
 15 16  1  0  0  0  0
 15 18  1  0  0  0  0
 16 17  1  0  0  0  0
 18 19  1  0  0  0  0
 19 20  1  0  0  0  0
 20 21  4  0  0  0  0
 20 25  4  0  0  0  0
 21 22  4  0  0  0  0
 22 23  4  0  0  0  0
 23 24  4  0  0  0  0
 24 25  4  0  0  0  0
 26 27  1  0  0  0  0
M  END
>  <Name_Molregno>
90660

>  <DOPAMINE D2>
5.77

>  <DOPAMINE D3>
6.11

>  <DOPAMINE D4>
8.46

$$$$
90664
  Marvin  02231216192D 0   1.00000     0.00000     0

 27 30  0  0  0  0  0  0  0  0999 V2000
    6.2464    6.3118    0.0000 Cl  0  0  0  0  0  0  0  0  0
    6.2464    5.4868    0.0000 C   0  0  0  0  0  0  0  0  0
    6.9608    5.0743    0.0000 C   0  0  0  0  0  0  0  0  0
    6.9608    4.2493    0.0000 C   0  0  0  0  0  0  0  0  0
    6.2464    3.8368    0.0000 C   0  0  0  0  0  0  0  0  0
    5.5319    4.2493    0.0000 C   0  0  0  0  0  0  0  0  0
    5.5319    5.0743    0.0000 C   0  0  0  0  0  0  0  0  0
    6.2464    3.0118    0.0000 C   0  0  0  0  0  0  0  0  0
    6.9138    2.5269    0.0000 N   0  0  0  0  0  0  0  0  0
    6.6589    1.7423    0.0000 O   0  0  0  0  0  0  0  0  0
    5.8339    1.7423    0.0000 C   0  0  0  0  0  0  0  0  0
    5.3490    1.0748    0.0000 C   0  0  0  0  0  0  0  0  0
    5.6845    0.3212    0.0000 C   0  0  0  0  0  0  0  0  0
    5.1996   -0.3463    0.0000 C   0  0  0  0  0  0  0  0  0
    4.3791   -0.2600    0.0000 N   0  0  0  0  0  0  0  0  0
    4.0436    0.4936    0.0000 C   0  0  0  0  0  0  0  0  0
    4.5285    1.1611    0.0000 C   0  0  0  0  0  0  0  0  0
    3.8942   -0.9275    0.0000 C   0  0  0  0  0  0  0  0  0
    4.2297   -1.6812    0.0000 C   0  0  0  0  0  0  0  0  0
    3.7448   -2.3486    0.0000 C   0  0  0  0  0  0  0  0  0
    4.0804   -3.1023    0.0000 C   0  0  0  0  0  0  0  0  0
    3.5955   -3.7697    0.0000 C   0  0  0  0  0  0  0  0  0
    2.7750   -3.6835    0.0000 C   0  0  0  0  0  0  0  0  0
    2.4394   -2.9298    0.0000 C   0  0  0  0  0  0  0  0  0
    2.9243   -2.2624    0.0000 C   0  0  0  0  0  0  0  0  0
    5.5789    2.5269    0.0000 C   0  0  0  0  0  0  0  0  0
    4.7943    2.7818    0.0000 C   0  0  0  0  0  0  0  0  0
  1  2  1  0  0  0  0
  2  3  4  0  0  0  0
  2  7  4  0  0  0  0
  3  4  4  0  0  0  0
  4  5  4  0  0  0  0
  5  6  4  0  0  0  0
  5  8  1  0  0  0  0
  6  7  4  0  0  0  0
  8  9  4  0  0  0  0
  8 26  4  0  0  0  0
  9 10  4  0  0  0  0
 10 11  4  0  0  0  0
 11 12  1  0  0  0  0
 11 26  4  0  0  0  0
 12 13  1  0  0  0  0
 12 17  1  0  0  0  0
 13 14  1  0  0  0  0
 14 15  1  0  0  0  0
 15 16  1  0  0  0  0
 15 18  1  0  0  0  0
 16 17  1  0  0  0  0
 18 19  1  0  0  0  0
 19 20  1  0  0  0  0
 20 21  4  0  0  0  0
 20 25  4  0  0  0  0
 21 22  4  0  0  0  0
 22 23  4  0  0  0  0
 23 24  4  0  0  0  0
 24 25  4  0  0  0  0
 26 27  1  0  0  0  0
M  END
>  <Name_Molregno>
90664

>  <DOPAMINE D2>
5.77

>  <DOPAMINE D3>
6.32

>  <DOPAMINE D4>
8.6

$$$$
90665
  Marvin  02231216192D 0   1.00000     0.00000     0

 26 29  0  0  0  0  0  0  0  0999 V2000
    6.6717    4.3658    0.0000 Cl  0  0  0  0  0  0  0  0  0
    6.6717    3.5408    0.0000 C   0  0  0  0  0  0  0  0  0
    7.3862    3.1283    0.0000 C   0  0  0  0  0  0  0  0  0
    7.3862    2.3033    0.0000 C   0  0  0  0  0  0  0  0  0
    6.6717    1.8908    0.0000 C   0  0  0  0  0  0  0  0  0
    5.9572    2.3033    0.0000 C   0  0  0  0  0  0  0  0  0
    5.9572    3.1283    0.0000 C   0  0  0  0  0  0  0  0  0
    6.6717    1.0658    0.0000 C   0  0  0  0  0  0  0  0  0
    7.3391    0.5809    0.0000 N   0  0  0  0  0  0  0  0  0
    7.0842   -0.2037    0.0000 O   0  0  0  0  0  0  0  0  0
    6.2592   -0.2037    0.0000 C   0  0  0  0  0  0  0  0  0
    6.0043    0.5809    0.0000 C   0  0  0  0  0  0  0  0  0
    5.7743   -0.8712    0.0000 C   0  0  0  0  0  0  0  0  0
    6.1098   -1.6249    0.0000 C   0  0  0  0  0  0  0  0  0
    5.6249   -2.2923    0.0000 C   0  0  0  0  0  0  0  0  0
    4.8044   -2.2061    0.0000 N   0  0  0  0  0  0  0  0  0
    4.4689   -1.4524    0.0000 C   0  0  0  0  0  0  0  0  0
    4.9538   -0.7849    0.0000 C   0  0  0  0  0  0  0  0  0
    4.3195   -2.8735    0.0000 C   0  0  0  0  0  0  0  0  0
    3.4990   -2.7873    0.0000 C   0  0  0  0  0  0  0  0  0
    3.0141   -3.4547    0.0000 C   0  0  0  0  0  0  0  0  0
    2.1936   -3.3685    0.0000 C   0  0  0  0  0  0  0  0  0
    1.8581   -2.6148    0.0000 C   0  0  0  0  0  0  0  0  0
    1.0376   -2.5286    0.0000 Cl  0  0  0  0  0  0  0  0  0
    2.3430   -1.9474    0.0000 C   0  0  0  0  0  0  0  0  0
    3.1635   -2.0336    0.0000 C   0  0  0  0  0  0  0  0  0
  1  2  1  0  0  0  0
  2  3  4  0  0  0  0
  2  7  4  0  0  0  0
  3  4  4  0  0  0  0
  4  5  4  0  0  0  0
  5  6  4  0  0  0  0
  5  8  1  0  0  0  0
  6  7  4  0  0  0  0
  8  9  4  0  0  0  0
  8 12  4  0  0  0  0
  9 10  4  0  0  0  0
 10 11  4  0  0  0  0
 11 12  4  0  0  0  0
 11 13  1  0  0  0  0
 13 14  1  0  0  0  0
 13 18  1  0  0  0  0
 14 15  1  0  0  0  0
 15 16  1  0  0  0  0
 16 17  1  0  0  0  0
 16 19  1  0  0  0  0
 17 18  1  0  0  0  0
 19 20  1  0  0  0  0
 20 21  4  0  0  0  0
 20 26  4  0  0  0  0
 21 22  4  0  0  0  0
 22 23  4  0  0  0  0
 23 24  1  0  0  0  0
 23 25  4  0  0  0  0
 25 26  4  0  0  0  0
M  END
>  <Name_Molregno>
90665

>  <DOPAMINE D2>
6.89

>  <DOPAMINE D3>
7.09

>  <DOPAMINE D4>
8.44

$$$$
90758
  Marvin  02231216192D 0   1.00000     0.00000     0

 29 32  0  0  0  0  0  0  0  0999 V2000
   -0.5121   -2.9633    0.0000 O   0  0  0  0  0  0  0  0  0
   -0.5121   -3.7883    0.0000 C   0  0  0  0  0  0  0  0  0
    0.2024   -2.5508    0.0000 C   0  0  0  0  0  0  0  0  0
    0.9169   -2.9633    0.0000 C   0  0  0  0  0  0  0  0  0
    1.6314   -2.5508    0.0000 C   0  0  0  0  0  0  0  0  0
    1.6314   -1.7258    0.0000 C   0  0  0  0  0  0  0  0  0
    0.9169   -1.3133    0.0000 C   0  0  0  0  0  0  0  0  0
    0.2024   -1.7258    0.0000 C   0  0  0  0  0  0  0  0  0
   -0.5121   -1.3133    0.0000 C   0  0  0  0  0  0  0  0  0
   -1.2265   -1.7258    0.0000 C   0  0  0  0  0  0  0  0  0
   -1.9410   -1.3133    0.0000 O   0  0  0  0  0  0  0  0  0
   -1.2265   -2.5508    0.0000 C   0  0  0  0  0  0  0  0  0
   -1.9410   -2.9633    0.0000 C   0  0  0  0  0  0  0  0  0
   -1.9410   -3.7883    0.0000 C   0  0  0  0  0  0  0  0  0
   -2.6555   -4.2008    0.0000 C   0  0  0  0  0  0  0  0  0
   -3.3699   -3.7883    0.0000 N   0  0  0  0  0  0  0  0  0
   -3.3699   -2.9633    0.0000 C   0  0  0  0  0  0  0  0  0
   -2.6555   -2.5508    0.0000 C   0  0  0  0  0  0  0  0  0
   -4.0844   -4.2008    0.0000 C   0  0  0  0  0  0  0  0  0
   -4.7989   -3.7883    0.0000 C   0  0  0  0  0  0  0  0  0
   -5.5134   -4.2008    0.0000 C   0  0  0  0  0  0  0  0  0
   -6.2278   -3.7883    0.0000 C   0  0  0  0  0  0  0  0  0
   -6.2278   -2.9633    0.0000 C   0  0  0  0  0  0  0  0  0
   -5.5134   -2.5508    0.0000 C   0  0  0  0  0  0  0  0  0
   -4.7989   -2.9633    0.0000 C   0  0  0  0  0  0  0  0  0
    2.3458   -1.3133    0.0000 C   0  0  0  0  0  0  0  0  0
    3.0603   -1.7258    0.0000 C   0  0  0  0  0  0  0  0  0
    3.0603   -2.5508    0.0000 C   0  0  0  0  0  0  0  0  0
    2.3458   -2.9633    0.0000 C   0  0  0  0  0  0  0  0  0
  1  2  1  0  0  0  0
  1  3  1  0  0  0  0
  3  4  4  0  0  0  0
  3  8  4  0  0  0  0
  4  5  4  0  0  0  0
  5  6  4  0  0  0  0
  5 29  4  0  0  0  0
  6  7  4  0  0  0  0
  6 26  4  0  0  0  0
  7  8  4  0  0  0  0
  8  9  1  0  0  0  0
  9 10  1  0  0  0  0
 10 11  2  0  0  0  0
 10 12  1  0  0  0  0
 12 13  1  0  0  0  0
 13 14  1  0  0  0  0
 13 18  1  0  0  0  0
 14 15  1  0  0  0  0
 15 16  1  0  0  0  0
 16 17  1  0  0  0  0
 16 19  1  0  0  0  0
 17 18  1  0  0  0  0
 19 20  1  0  0  0  0
 20 21  4  0  0  0  0
 20 25  4  0  0  0  0
 21 22  4  0  0  0  0
 22 23  4  0  0  0  0
 23 24  4  0  0  0  0
 24 25  4  0  0  0  0
 26 27  4  0  0  0  0
 27 28  4  0  0  0  0
 28 29  4  0  0  0  0
M  END
>  <Name_Molregno>
90758

>  <DOPAMINE D2>
5.9

>  <DOPAMINE D4>
6.7

$$$$
90847
  Marvin  02231216192D 0   1.00000     0.00000     0

 17 19  0  0  0  0  0  0  0  0999 V2000
    0.9077    0.0888    0.0000 N   0  0  0  0  0  0  0  0  0
    0.4227   -0.5786    0.0000 C   0  0  0  0  0  0  0  0  0
    0.9077   -1.2461    0.0000 C   0  0  0  0  0  0  0  0  0
    1.6923   -0.9911    0.0000 C   0  0  0  0  0  0  0  0  0
    1.6923   -0.1661    0.0000 C   0  0  0  0  0  0  0  0  0
    2.4068    0.2464    0.0000 C   0  0  0  0  0  0  0  0  0
    3.1212   -0.1661    0.0000 C   0  0  0  0  0  0  0  0  0
    3.1212   -0.9911    0.0000 C   0  0  0  0  0  0  0  0  0
    2.4068   -1.4036    0.0000 C   0  0  0  0  0  0  0  0  0
    0.6527   -2.0307    0.0000 C   0  0  0  0  0  0  0  0  0
   -0.1543   -2.2022    0.0000 N   0  0  0  0  0  0  0  0  0
   -0.4092   -2.9868    0.0000 C   0  0  0  0  0  0  0  0  0
   -1.2162   -3.1584    0.0000 C   0  0  0  0  0  0  0  0  0
   -1.7682   -2.5453    0.0000 C   0  0  0  0  0  0  0  0  0
   -1.5133   -1.7607    0.0000 C   0  0  0  0  0  0  0  0  0
   -0.7063   -1.5891    0.0000 C   0  0  0  0  0  0  0  0  0
   -2.5752   -2.7168    0.0000 C   0  0  0  0  0  0  0  0  0
  1  2  4  0  0  0  0
  1  5  4  0  0  0  0
  2  3  4  0  0  0  0
  3  4  4  0  0  0  0
  3 10  1  0  0  0  0
  4  5  4  0  0  0  0
  4  9  4  0  0  0  0
  5  6  4  0  0  0  0
  6  7  4  0  0  0  0
  7  8  4  0  0  0  0
  8  9  4  0  0  0  0
 10 11  1  0  0  0  0
 11 12  1  0  0  0  0
 11 16  1  0  0  0  0
 12 13  1  0  0  0  0
 13 14  1  0  0  0  0
 14 15  1  0  0  0  0
 14 17  1  0  0  0  0
 15 16  1  0  0  0  0
M  STY  1   1 DAT
M  SAL   1  1   1
M  SDT   1 MRV_IMPLICIT_H                                        
M  SDD   1     0.0000    0.0000    DR    ALL  0       0  
M  SED   1 IMPL_H1
M  END
>  <Name_Molregno>
90847

>  <DOPAMINE D2>
5.26

>  <DOPAMINE D3>
5.17

>  <DOPAMINE D4>
6.24

$$$$
90848
  Marvin  02231216192D 0   1.00000     0.00000     0

 16 18  0  0  0  0  0  0  0  0999 V2000
    1.0364    0.3129    0.0000 N   0  0  0  0  0  0  0  0  0
    0.5515   -0.3545    0.0000 C   0  0  0  0  0  0  0  0  0
    1.0364   -1.0220    0.0000 C   0  0  0  0  0  0  0  0  0
    1.8211   -0.7670    0.0000 C   0  0  0  0  0  0  0  0  0
    1.8211    0.0580    0.0000 C   0  0  0  0  0  0  0  0  0
    2.5355    0.4705    0.0000 C   0  0  0  0  0  0  0  0  0
    3.2500    0.0580    0.0000 C   0  0  0  0  0  0  0  0  0
    3.2500   -0.7670    0.0000 C   0  0  0  0  0  0  0  0  0
    2.5355   -1.1795    0.0000 C   0  0  0  0  0  0  0  0  0
    0.7815   -1.8066    0.0000 C   0  0  0  0  0  0  0  0  0
   -0.0255   -1.9781    0.0000 N   0  0  0  0  0  0  0  0  0
   -0.2804   -2.7628    0.0000 C   0  0  0  0  0  0  0  0  0
   -1.0874   -2.9343    0.0000 C   0  0  0  0  0  0  0  0  0
   -1.6394   -2.3212    0.0000 C   0  0  0  0  0  0  0  0  0
   -1.3845   -1.5366    0.0000 C   0  0  0  0  0  0  0  0  0
   -0.5775   -1.3650    0.0000 C   0  0  0  0  0  0  0  0  0
  1  2  4  0  0  0  0
  1  5  4  0  0  0  0
  2  3  4  0  0  0  0
  3  4  4  0  0  0  0
  3 10  1  0  0  0  0
  4  5  4  0  0  0  0
  4  9  4  0  0  0  0
  5  6  4  0  0  0  0
  6  7  4  0  0  0  0
  7  8  4  0  0  0  0
  8  9  4  0  0  0  0
 10 11  1  0  0  0  0
 11 12  1  0  0  0  0
 11 16  1  0  0  0  0
 12 13  1  0  0  0  0
 13 14  1  0  0  0  0
 14 15  1  0  0  0  0
 15 16  1  0  0  0  0
M  STY  1   1 DAT
M  SAL   1  1   1
M  SDT   1 MRV_IMPLICIT_H                                        
M  SDD   1     0.0000    0.0000    DR    ALL  0       0  
M  SED   1 IMPL_H1
M  END
>  <Name_Molregno>
90848

>  <DOPAMINE D2>
5.89

>  <DOPAMINE D3>
5.43

>  <DOPAMINE D4>
5.59

$$$$
90862
  Marvin  02231216192D 0   1.00000     0.00000     0

 29 32  0  0  0  0  0  0  0  0999 V2000
    1.6457   -2.7575    0.0000 O   0  0  0  0  0  0  0  0  0
    0.9312   -2.3450    0.0000 C   0  0  0  0  0  0  0  0  0
    0.9312   -1.5200    0.0000 O   0  0  0  0  0  0  0  0  0
    0.2167   -2.7575    0.0000 C   0  0  0  0  0  0  0  0  0
   -0.4978   -2.3450    0.0000 C   0  0  0  0  0  0  0  0  0
   -1.2122   -2.7575    0.0000 C   0  0  0  0  0  0  0  0  0
   -1.9267   -2.3450    0.0000 C   0  0  0  0  0  0  0  0  0
   -1.9267   -1.5200    0.0000 N   0  0  0  0  0  0  0  0  0
   -1.2122   -1.1075    0.0000 C   0  0  0  0  0  0  0  0  0
   -0.4978   -1.5200    0.0000 C   0  0  0  0  0  0  0  0  0
   -2.6412   -1.1075    0.0000 C   0  0  0  0  0  0  0  0  0
   -2.6412   -0.2825    0.0000 C   0  0  0  0  0  0  0  0  0
   -3.3556    0.1300    0.0000 C   0  0  0  0  0  0  0  0  0
   -3.3556    0.9550    0.0000 C   0  0  0  0  0  0  0  0  0
   -2.6412    1.3675    0.0000 C   0  0  0  0  0  0  0  0  0
   -1.9267    0.9550    0.0000 C   0  0  0  0  0  0  0  0  0
   -1.9267    0.1300    0.0000 C   0  0  0  0  0  0  0  0  0
    2.3601   -2.3450    0.0000 C   0  0  0  0  0  0  0  0  0
    3.0746   -2.7575    0.0000 C   0  0  0  0  0  0  0  0  0
    3.7891   -2.3450    0.0000 C   0  0  0  0  0  0  0  0  0
    3.7891   -1.5200    0.0000 C   0  0  0  0  0  0  0  0  0
    3.0746   -1.1075    0.0000 C   0  0  0  0  0  0  0  0  0
    2.3601   -1.5200    0.0000 C   0  0  0  0  0  0  0  0  0
    1.6457   -1.1075    0.0000 O   0  0  0  0  0  0  0  0  0
    1.6457   -0.2825    0.0000 C   0  0  0  0  0  0  0  0  0
    4.5035   -1.1075    0.0000 C   0  0  0  0  0  0  0  0  0
    5.2180   -1.5200    0.0000 C   0  0  0  0  0  0  0  0  0
    5.2180   -2.3450    0.0000 C   0  0  0  0  0  0  0  0  0
    4.5035   -2.7575    0.0000 C   0  0  0  0  0  0  0  0  0
  1  2  1  0  0  0  0
  1 18  1  0  0  0  0
  2  3  2  0  0  0  0
  2  4  1  0  0  0  0
  4  5  1  0  0  0  0
  5  6  1  0  0  0  0
  5 10  1  0  0  0  0
  6  7  1  0  0  0  0
  7  8  1  0  0  0  0
  8  9  1  0  0  0  0
  8 11  1  0  0  0  0
  9 10  1  0  0  0  0
 11 12  1  0  0  0  0
 12 13  4  0  0  0  0
 12 17  4  0  0  0  0
 13 14  4  0  0  0  0
 14 15  4  0  0  0  0
 15 16  4  0  0  0  0
 16 17  4  0  0  0  0
 18 19  4  0  0  0  0
 18 23  4  0  0  0  0
 19 20  4  0  0  0  0
 20 21  4  0  0  0  0
 20 29  4  0  0  0  0
 21 22  4  0  0  0  0
 21 26  4  0  0  0  0
 22 23  4  0  0  0  0
 23 24  1  0  0  0  0
 24 25  1  0  0  0  0
 26 27  4  0  0  0  0
 27 28  4  0  0  0  0
 28 29  4  0  0  0  0
M  END
>  <Name_Molregno>
90862

>  <DOPAMINE D2>
5.1

>  <DOPAMINE D4>
8.2

$$$$
90866
  Marvin  02231216192D 0   1.00000     0.00000     0

 24 27  0  0  0  0  0  0  0  0999 V2000
    0.3176    0.0313    0.0000 Cl  0  0  0  0  0  0  0  0  0
    1.0460   -0.3560    0.0000 C   0  0  0  0  0  0  0  0  0
    1.7457    0.0812    0.0000 C   0  0  0  0  0  0  0  0  0
    2.4741   -0.3061    0.0000 C   0  0  0  0  0  0  0  0  0
    2.5029   -1.1306    0.0000 C   0  0  0  0  0  0  0  0  0
    1.8032   -1.5678    0.0000 C   0  0  0  0  0  0  0  0  0
    1.0748   -1.1805    0.0000 C   0  0  0  0  0  0  0  0  0
    3.2313   -1.5179    0.0000 C   0  0  0  0  0  0  0  0  0
    2.7234   -2.1680    0.0000 O   0  0  0  0  0  0  0  0  0
    3.4863   -0.7333    0.0000 C   0  0  0  0  0  0  0  0  0
    4.2932   -0.5618    0.0000 C   0  0  0  0  0  0  0  0  0
    4.8453   -1.1749    0.0000 N   0  0  0  0  0  0  0  0  0
    4.5903   -1.9595    0.0000 C   0  0  0  0  0  0  0  0  0
    3.7833   -2.1310    0.0000 C   0  0  0  0  0  0  0  0  0
    5.6522   -1.0033    0.0000 C   0  0  0  0  0  0  0  0  0
    5.9072   -0.2187    0.0000 C   0  0  0  0  0  0  0  0  0
    6.6918    0.0362    0.0000 C   0  0  0  0  0  0  0  0  0
    6.6918    0.8612    0.0000 C   0  0  0  0  0  0  0  0  0
    5.9072    1.1162    0.0000 N   0  0  0  0  0  0  0  0  0
    5.4222    0.4487    0.0000 C   0  0  0  0  0  0  0  0  0
    7.4063    1.2737    0.0000 C   0  0  0  0  0  0  0  0  0
    8.1207    0.8612    0.0000 C   0  0  0  0  0  0  0  0  0
    8.1207    0.0362    0.0000 C   0  0  0  0  0  0  0  0  0
    7.4063   -0.3763    0.0000 C   0  0  0  0  0  0  0  0  0
  1  2  1  0  0  0  0
  2  3  4  0  0  0  0
  2  7  4  0  0  0  0
  3  4  4  0  0  0  0
  4  5  4  0  0  0  0
  5  6  4  0  0  0  0
  5  8  1  0  0  0  0
  6  7  4  0  0  0  0
  8  9  1  0  0  0  0
  8 10  1  0  0  0  0
  8 14  1  0  0  0  0
 10 11  1  0  0  0  0
 11 12  1  0  0  0  0
 12 13  1  0  0  0  0
 12 15  1  0  0  0  0
 13 14  1  0  0  0  0
 15 16  1  0  0  0  0
 16 17  4  0  0  0  0
 16 20  4  0  0  0  0
 17 18  4  0  0  0  0
 17 24  4  0  0  0  0
 18 19  4  0  0  0  0
 18 21  4  0  0  0  0
 19 20  4  0  0  0  0
 21 22  4  0  0  0  0
 22 23  4  0  0  0  0
 23 24  4  0  0  0  0
M  STY  1   1 DAT
M  SAL   1  1  19
M  SDT   1 MRV_IMPLICIT_H                                        
M  SDD   1     0.0000    0.0000    DR    ALL  0       0  
M  SED   1 IMPL_H1
M  END
>  <Name_Molregno>
90866

>  <DOPAMINE D2>
8.07

>  <DOPAMINE D3>
6.96

>  <DOPAMINE D4>
6.09

$$$$
90867
  Marvin  02231216192D 0   1.00000     0.00000     0

 23 26  0  0  0  0  0  0  0  0999 V2000
    0.0748    1.8640    0.0000 I   0  0  0  0  0  0  0  0  0
    0.8818    1.6925    0.0000 C   0  0  0  0  0  0  0  0  0
    1.4339    2.3056    0.0000 C   0  0  0  0  0  0  0  0  0
    2.2408    2.1340    0.0000 C   0  0  0  0  0  0  0  0  0
    2.4958    1.3494    0.0000 C   0  0  0  0  0  0  0  0  0
    3.3027    1.1779    0.0000 N   0  0  0  0  0  0  0  0  0
    3.8548    1.7910    0.0000 C   0  0  0  0  0  0  0  0  0
    4.6617    1.6194    0.0000 C   0  0  0  0  0  0  0  0  0
    4.9167    0.8348    0.0000 N   0  0  0  0  0  0  0  0  0
    4.3646    0.2217    0.0000 C   0  0  0  0  0  0  0  0  0
    3.5577    0.3933    0.0000 C   0  0  0  0  0  0  0  0  0
    5.7237    0.6633    0.0000 C   0  0  0  0  0  0  0  0  0
    5.9786   -0.1213    0.0000 C   0  0  0  0  0  0  0  0  0
    6.7632   -0.3763    0.0000 C   0  0  0  0  0  0  0  0  0
    7.4777    0.0362    0.0000 C   0  0  0  0  0  0  0  0  0
    8.1922   -0.3763    0.0000 C   0  0  0  0  0  0  0  0  0
    8.1922   -1.2013    0.0000 C   0  0  0  0  0  0  0  0  0
    7.4777   -1.6138    0.0000 N   0  0  0  0  0  0  0  0  0
    6.7632   -1.2013    0.0000 C   0  0  0  0  0  0  0  0  0
    5.9786   -1.4562    0.0000 N   0  0  0  0  0  0  0  0  0
    5.4937   -0.7888    0.0000 C   0  0  0  0  0  0  0  0  0
    1.9437    0.7363    0.0000 C   0  0  0  0  0  0  0  0  0
    1.1368    0.9078    0.0000 C   0  0  0  0  0  0  0  0  0
  1  2  1  0  0  0  0
  2  3  4  0  0  0  0
  2 23  4  0  0  0  0
  3  4  4  0  0  0  0
  4  5  4  0  0  0  0
  5  6  1  0  0  0  0
  5 22  4  0  0  0  0
  6  7  1  0  0  0  0
  6 11  1  0  0  0  0
  7  8  1  0  0  0  0
  8  9  1  0  0  0  0
  9 10  1  0  0  0  0
  9 12  1  0  0  0  0
 10 11  1  0  0  0  0
 12 13  1  0  0  0  0
 13 14  4  0  0  0  0
 13 21  4  0  0  0  0
 14 15  4  0  0  0  0
 14 19  4  0  0  0  0
 15 16  4  0  0  0  0
 16 17  4  0  0  0  0
 17 18  4  0  0  0  0
 18 19  4  0  0  0  0
 19 20  4  0  0  0  0
 20 21  4  0  0  0  0
 22 23  4  0  0  0  0
M  STY  1   1 DAT
M  SAL   1  1  20
M  SDT   1 MRV_IMPLICIT_H                                        
M  SDD   1     0.0000    0.0000    DR    ALL  0       0  
M  SED   1 IMPL_H1
M  END
>  <Name_Molregno>
90867

>  <DOPAMINE D2>
5.77

>  <DOPAMINE D3>
5.35

>  <DOPAMINE D4>
9.29

$$$$
90873
  Marvin  02231216192D 0   1.00000     0.00000     0

 24 26  0  0  0  0  0  0  0  0999 V2000
    6.6315    3.0915    0.0000 Cl  0  0  0  0  0  0  0  0  0
    6.6315    2.2665    0.0000 C   0  0  0  0  0  0  0  0  0
    7.3460    1.8540    0.0000 C   0  0  0  0  0  0  0  0  0
    7.3460    1.0290    0.0000 C   0  0  0  0  0  0  0  0  0
    6.6315    0.6165    0.0000 C   0  0  0  0  0  0  0  0  0
    5.9171    1.0290    0.0000 C   0  0  0  0  0  0  0  0  0
    5.9171    1.8540    0.0000 C   0  0  0  0  0  0  0  0  0
    6.6315   -0.2085    0.0000 C   0  0  0  0  0  0  0  0  0
    5.9171   -0.6210    0.0000 O   0  0  0  0  0  0  0  0  0
    5.9171   -1.4460    0.0000 C   0  0  0  0  0  0  0  0  0
    5.2026   -1.8585    0.0000 C   0  0  0  0  0  0  0  0  0
    5.2026   -2.6835    0.0000 C   0  0  0  0  0  0  0  0  0
    4.4881   -3.0960    0.0000 C   0  0  0  0  0  0  0  0  0
    3.7737   -2.6835    0.0000 N   0  0  0  0  0  0  0  0  0
    3.7737   -1.8585    0.0000 C   0  0  0  0  0  0  0  0  0
    4.4881   -1.4460    0.0000 C   0  0  0  0  0  0  0  0  0
    3.0592   -3.0960    0.0000 C   0  0  0  0  0  0  0  0  0
    2.3447   -2.6835    0.0000 C   0  0  0  0  0  0  0  0  0
    1.6302   -3.0960    0.0000 C   0  0  0  0  0  0  0  0  0
    0.9158   -2.6835    0.0000 C   0  0  0  0  0  0  0  0  0
    0.9158   -1.8585    0.0000 C   0  0  0  0  0  0  0  0  0
    1.6302   -1.4460    0.0000 C   0  0  0  0  0  0  0  0  0
    2.3447   -1.8585    0.0000 C   0  0  0  0  0  0  0  0  0
    7.3460   -0.6210    0.0000 O   0  0  0  0  0  0  0  0  0
  1  2  1  0  0  0  0
  2  3  4  0  0  0  0
  2  7  4  0  0  0  0
  3  4  4  0  0  0  0
  4  5  4  0  0  0  0
  5  6  4  0  0  0  0
  5  8  1  0  0  0  0
  6  7  4  0  0  0  0
  8  9  1  0  0  0  0
  8 24  2  0  0  0  0
  9 10  1  0  0  0  0
 10 11  1  0  0  0  0
 11 12  1  0  0  0  0
 11 16  1  0  0  0  0
 12 13  1  0  0  0  0
 13 14  1  0  0  0  0
 14 15  1  0  0  0  0
 14 17  1  0  0  0  0
 15 16  1  0  0  0  0
 17 18  1  0  0  0  0
 18 19  4  0  0  0  0
 18 23  4  0  0  0  0
 19 20  4  0  0  0  0
 20 21  4  0  0  0  0
 21 22  4  0  0  0  0
 22 23  4  0  0  0  0
M  END
>  <Name_Molregno>
90873

>  <DOPAMINE D2>
5.7

>  <DOPAMINE D4>
7.6

$$$$
90874
  Marvin  02231216192D 0   1.00000     0.00000     0

 27 30  0  0  1  0  0  0  0  0999 V2000
    2.1137   -0.0307    0.0000 O   0  0  0  0  0  0  0  0  0
    1.3992    0.3818    0.0000 C   0  0  0  0  0  0  0  0  0
    2.8282    0.3818    0.0000 C   0  0  0  0  0  0  0  0  0
    3.5426   -0.0307    0.0000 C   0  0  0  0  0  0  0  0  0
    4.2571    0.3818    0.0000 C   0  0  0  0  0  0  0  0  0
    4.2571    1.2068    0.0000 C   0  0  0  0  0  0  0  0  0
    3.5426    1.6193    0.0000 C   0  0  0  0  0  0  0  0  0
    2.8282    1.2068    0.0000 C   0  0  0  0  0  0  0  0  0
    2.1137    1.6193    0.0000 C   0  0  0  0  0  0  0  0  0
    2.1137    2.4443    0.0000 O   0  0  0  0  0  0  0  0  0
    1.3992    1.2068    0.0000 N   0  0  0  0  0  0  0  0  0
    0.6848    1.6193    0.0000 C   0  0  0  0  0  0  0  0  0
   -0.0689    1.2837    0.0000 C   0  0  0  0  0  0  0  0  0
   -0.6210    1.8968    0.0000 C   0  0  0  0  0  0  0  0  0
   -0.2085    2.6113    0.0000 N   0  0  0  0  0  0  0  0  0
    0.5985    2.4397    0.0000 C   0  0  0  0  0  0  0  0  0
   -0.5440    3.3649    0.0000 C   0  0  0  0  0  0  0  0  0
   -1.3645    3.4512    0.0000 C   0  0  0  0  0  0  0  0  0
   -1.8494    2.7837    0.0000 C   0  0  0  0  0  0  0  0  0
   -2.6699    2.8700    0.0000 C   0  0  0  0  0  0  0  0  0
   -3.0055    3.6237    0.0000 C   0  0  0  0  0  0  0  0  0
   -2.5205    4.2911    0.0000 C   0  0  0  0  0  0  0  0  0
   -1.7000    4.2049    0.0000 C   0  0  0  0  0  0  0  0  0
    4.9716    1.6193    0.0000 C   0  0  0  0  0  0  0  0  0
    5.6861    1.2068    0.0000 C   0  0  0  0  0  0  0  0  0
    5.6861    0.3818    0.0000 C   0  0  0  0  0  0  0  0  0
    4.9716   -0.0307    0.0000 C   0  0  0  0  0  0  0  0  0
  1  2  1  0  0  0  0
  1  3  1  0  0  0  0
  3  4  4  0  0  0  0
  3  8  4  0  0  0  0
  4  5  4  0  0  0  0
  5  6  4  0  0  0  0
  5 27  4  0  0  0  0
  6  7  4  0  0  0  0
  6 24  4  0  0  0  0
  7  8  4  0  0  0  0
  8  9  1  0  0  0  0
  9 10  2  0  0  0  0
  9 11  1  0  0  0  0
 11 12  1  0  0  0  0
 12 13  1  0  0  0  0
 12 16  1  0  0  0  0
 13 14  1  0  0  0  0
 14 15  1  0  0  0  0
 15 16  1  0  0  0  0
 15 17  1  0  0  0  0
 17 18  1  0  0  0  0
 18 19  4  0  0  0  0
 18 23  4  0  0  0  0
 19 20  4  0  0  0  0
 20 21  4  0  0  0  0
 21 22  4  0  0  0  0
 22 23  4  0  0  0  0
 24 25  4  0  0  0  0
 25 26  4  0  0  0  0
 26 27  4  0  0  0  0
M  END
>  <Name_Molregno>
90874

>  <DOPAMINE D2>
7.4

>  <DOPAMINE D4>
8.4

$$$$
90890
  Marvin  02231216192D 0   1.00000     0.00000     0

 29 32  0  0  0  0  0  0  0  0999 V2000
   -0.1840   -3.5714    0.0000 O   0  0  0  0  0  0  0  0  0
   -0.8985   -3.1589    0.0000 C   0  0  0  0  0  0  0  0  0
    0.5304   -3.1589    0.0000 C   0  0  0  0  0  0  0  0  0
    1.2449   -3.5714    0.0000 C   0  0  0  0  0  0  0  0  0
    1.9594   -3.1589    0.0000 C   0  0  0  0  0  0  0  0  0
    1.9594   -2.3339    0.0000 C   0  0  0  0  0  0  0  0  0
    1.2449   -1.9214    0.0000 C   0  0  0  0  0  0  0  0  0
    0.5304   -2.3339    0.0000 C   0  0  0  0  0  0  0  0  0
   -0.1840   -1.9214    0.0000 C   0  0  0  0  0  0  0  0  0
   -0.8985   -2.3339    0.0000 O   0  0  0  0  0  0  0  0  0
   -1.6130   -1.9214    0.0000 C   0  0  0  0  0  0  0  0  0
   -2.3274   -2.3339    0.0000 C   0  0  0  0  0  0  0  0  0
   -2.3274   -3.1589    0.0000 C   0  0  0  0  0  0  0  0  0
   -3.0419   -3.5714    0.0000 C   0  0  0  0  0  0  0  0  0
   -3.7564   -3.1589    0.0000 N   0  0  0  0  0  0  0  0  0
   -3.7564   -2.3339    0.0000 C   0  0  0  0  0  0  0  0  0
   -3.0419   -1.9214    0.0000 C   0  0  0  0  0  0  0  0  0
   -4.4708   -3.5714    0.0000 C   0  0  0  0  0  0  0  0  0
   -5.1853   -3.1589    0.0000 C   0  0  0  0  0  0  0  0  0
   -5.8998   -3.5714    0.0000 C   0  0  0  0  0  0  0  0  0
   -6.6143   -3.1589    0.0000 C   0  0  0  0  0  0  0  0  0
   -6.6143   -2.3339    0.0000 C   0  0  0  0  0  0  0  0  0
   -5.8998   -1.9214    0.0000 C   0  0  0  0  0  0  0  0  0
   -5.1853   -2.3339    0.0000 C   0  0  0  0  0  0  0  0  0
   -0.1840   -1.0964    0.0000 O   0  0  0  0  0  0  0  0  0
    2.6739   -1.9214    0.0000 C   0  0  0  0  0  0  0  0  0
    3.3883   -2.3339    0.0000 C   0  0  0  0  0  0  0  0  0
    3.3883   -3.1589    0.0000 C   0  0  0  0  0  0  0  0  0
    2.6739   -3.5714    0.0000 C   0  0  0  0  0  0  0  0  0
  1  2  1  0  0  0  0
  1  3  1  0  0  0  0
  3  4  4  0  0  0  0
  3  8  4  0  0  0  0
  4  5  4  0  0  0  0
  5  6  4  0  0  0  0
  5 29  4  0  0  0  0
  6  7  4  0  0  0  0
  6 26  4  0  0  0  0
  7  8  4  0  0  0  0
  8  9  1  0  0  0  0
  9 10  1  0  0  0  0
  9 25  2  0  0  0  0
 10 11  1  0  0  0  0
 11 12  1  0  0  0  0
 12 13  1  0  0  0  0
 12 17  1  0  0  0  0
 13 14  1  0  0  0  0
 14 15  1  0  0  0  0
 15 16  1  0  0  0  0
 15 18  1  0  0  0  0
 16 17  1  0  0  0  0
 18 19  1  0  0  0  0
 19 20  4  0  0  0  0
 19 24  4  0  0  0  0
 20 21  4  0  0  0  0
 21 22  4  0  0  0  0
 22 23  4  0  0  0  0
 23 24  4  0  0  0  0
 26 27  4  0  0  0  0
 27 28  4  0  0  0  0
 28 29  4  0  0  0  0
M  END
>  <Name_Molregno>
90890

>  <DOPAMINE D2>
5.5

>  <DOPAMINE D4>
8.3

$$$$
90892
  Marvin  02231216192D 0   1.00000     0.00000     0

 28 31  0  0  0  0  0  0  0  0999 V2000
    1.6797   -2.7615    0.0000 O   0  0  0  0  0  0  0  0  0
    0.9653   -2.3490    0.0000 C   0  0  0  0  0  0  0  0  0
    0.2508   -2.7615    0.0000 C   0  0  0  0  0  0  0  0  0
   -0.4637   -2.3490    0.0000 C   0  0  0  0  0  0  0  0  0
   -1.1781   -2.7615    0.0000 C   0  0  0  0  0  0  0  0  0
   -1.8926   -2.3490    0.0000 C   0  0  0  0  0  0  0  0  0
   -1.8926   -1.5240    0.0000 N   0  0  0  0  0  0  0  0  0
   -1.1781   -1.1115    0.0000 C   0  0  0  0  0  0  0  0  0
   -0.4637   -1.5240    0.0000 C   0  0  0  0  0  0  0  0  0
   -2.6071   -1.1115    0.0000 C   0  0  0  0  0  0  0  0  0
   -2.6071   -0.2865    0.0000 C   0  0  0  0  0  0  0  0  0
   -3.3216    0.1260    0.0000 C   0  0  0  0  0  0  0  0  0
   -3.3216    0.9510    0.0000 C   0  0  0  0  0  0  0  0  0
   -2.6071    1.3635    0.0000 C   0  0  0  0  0  0  0  0  0
   -1.8926    0.9510    0.0000 C   0  0  0  0  0  0  0  0  0
   -1.8926    0.1260    0.0000 C   0  0  0  0  0  0  0  0  0
    2.3942   -2.3490    0.0000 C   0  0  0  0  0  0  0  0  0
    3.1087   -2.7615    0.0000 C   0  0  0  0  0  0  0  0  0
    3.8232   -2.3490    0.0000 C   0  0  0  0  0  0  0  0  0
    3.8232   -1.5240    0.0000 C   0  0  0  0  0  0  0  0  0
    3.1087   -1.1115    0.0000 C   0  0  0  0  0  0  0  0  0
    2.3942   -1.5240    0.0000 C   0  0  0  0  0  0  0  0  0
    1.6797   -1.1115    0.0000 O   0  0  0  0  0  0  0  0  0
    1.6797   -0.2865    0.0000 C   0  0  0  0  0  0  0  0  0
    4.5376   -1.1115    0.0000 C   0  0  0  0  0  0  0  0  0
    5.2521   -1.5240    0.0000 C   0  0  0  0  0  0  0  0  0
    5.2521   -2.3490    0.0000 C   0  0  0  0  0  0  0  0  0
    4.5376   -2.7615    0.0000 C   0  0  0  0  0  0  0  0  0
  1  2  1  0  0  0  0
  1 17  1  0  0  0  0
  2  3  1  0  0  0  0
  3  4  1  0  0  0  0
  4  5  1  0  0  0  0
  4  9  1  0  0  0  0
  5  6  1  0  0  0  0
  6  7  1  0  0  0  0
  7  8  1  0  0  0  0
  7 10  1  0  0  0  0
  8  9  1  0  0  0  0
 10 11  1  0  0  0  0
 11 12  4  0  0  0  0
 11 16  4  0  0  0  0
 12 13  4  0  0  0  0
 13 14  4  0  0  0  0
 14 15  4  0  0  0  0
 15 16  4  0  0  0  0
 17 18  4  0  0  0  0
 17 22  4  0  0  0  0
 18 19  4  0  0  0  0
 19 20  4  0  0  0  0
 19 28  4  0  0  0  0
 20 21  4  0  0  0  0
 20 25  4  0  0  0  0
 21 22  4  0  0  0  0
 22 23  1  0  0  0  0
 23 24  1  0  0  0  0
 25 26  4  0  0  0  0
 26 27  4  0  0  0  0
 27 28  4  0  0  0  0
M  END
>  <Name_Molregno>
90892

>  <DOPAMINE D2>
5.8

>  <DOPAMINE D4>
7.6

$$$$
90988
  Marvin  02231216192D 0   1.00000     0.00000     0

 29 32  0  0  0  0  0  0  0  0999 V2000
   -0.1840   -3.5714    0.0000 O   0  0  0  0  0  0  0  0  0
   -0.8985   -3.1589    0.0000 C   0  0  0  0  0  0  0  0  0
    0.5304   -3.1589    0.0000 C   0  0  0  0  0  0  0  0  0
    1.2449   -3.5714    0.0000 C   0  0  0  0  0  0  0  0  0
    1.9594   -3.1589    0.0000 C   0  0  0  0  0  0  0  0  0
    1.9594   -2.3339    0.0000 C   0  0  0  0  0  0  0  0  0
    1.2449   -1.9214    0.0000 C   0  0  0  0  0  0  0  0  0
    0.5304   -2.3339    0.0000 C   0  0  0  0  0  0  0  0  0
   -0.1840   -1.9214    0.0000 C   0  0  0  0  0  0  0  0  0
   -0.1840   -1.0964    0.0000 O   0  0  0  0  0  0  0  0  0
   -0.8985   -2.3339    0.0000 C   0  0  0  0  0  0  0  0  0
   -1.6130   -1.9214    0.0000 C   0  0  0  0  0  0  0  0  0
   -2.3274   -2.3339    0.0000 C   0  0  0  0  0  0  0  0  0
   -2.3274   -3.1589    0.0000 C   0  0  0  0  0  0  0  0  0
   -3.0419   -3.5714    0.0000 C   0  0  0  0  0  0  0  0  0
   -3.7564   -3.1589    0.0000 N   0  0  0  0  0  0  0  0  0
   -3.7564   -2.3339    0.0000 C   0  0  0  0  0  0  0  0  0
   -3.0419   -1.9214    0.0000 C   0  0  0  0  0  0  0  0  0
   -4.4708   -3.5714    0.0000 C   0  0  0  0  0  0  0  0  0
   -5.1853   -3.1589    0.0000 C   0  0  0  0  0  0  0  0  0
   -5.8998   -3.5714    0.0000 C   0  0  0  0  0  0  0  0  0
   -6.6143   -3.1589    0.0000 C   0  0  0  0  0  0  0  0  0
   -6.6143   -2.3339    0.0000 C   0  0  0  0  0  0  0  0  0
   -5.8998   -1.9214    0.0000 C   0  0  0  0  0  0  0  0  0
   -5.1853   -2.3339    0.0000 C   0  0  0  0  0  0  0  0  0
    2.6739   -1.9214    0.0000 C   0  0  0  0  0  0  0  0  0
    3.3883   -2.3339    0.0000 C   0  0  0  0  0  0  0  0  0
    3.3883   -3.1589    0.0000 C   0  0  0  0  0  0  0  0  0
    2.6739   -3.5714    0.0000 C   0  0  0  0  0  0  0  0  0
  1  2  1  0  0  0  0
  1  3  1  0  0  0  0
  3  4  4  0  0  0  0
  3  8  4  0  0  0  0
  4  5  4  0  0  0  0
  5  6  4  0  0  0  0
  5 29  4  0  0  0  0
  6  7  4  0  0  0  0
  6 26  4  0  0  0  0
  7  8  4  0  0  0  0
  8  9  1  0  0  0  0
  9 10  2  0  0  0  0
  9 11  1  0  0  0  0
 11 12  1  0  0  0  0
 12 13  1  0  0  0  0
 13 14  1  0  0  0  0
 13 18  1  0  0  0  0
 14 15  1  0  0  0  0
 15 16  1  0  0  0  0
 16 17  1  0  0  0  0
 16 19  1  0  0  0  0
 17 18  1  0  0  0  0
 19 20  1  0  0  0  0
 20 21  4  0  0  0  0
 20 25  4  0  0  0  0
 21 22  4  0  0  0  0
 22 23  4  0  0  0  0
 23 24  4  0  0  0  0
 24 25  4  0  0  0  0
 26 27  4  0  0  0  0
 27 28  4  0  0  0  0
 28 29  4  0  0  0  0
M  END
>  <Name_Molregno>
90988

>  <DOPAMINE D2>
6.4

>  <DOPAMINE D4>
7.5

$$$$
90998
  Marvin  02231216192D 0   1.00000     0.00000     0

 22 25  0  0  0  0  0  0  0  0999 V2000
    2.7487    0.1839    0.0000 N   0  0  0  0  0  0  0  0  0
    2.2638   -0.4835    0.0000 C   0  0  0  0  0  0  0  0  0
    2.7487   -1.1509    0.0000 C   0  0  0  0  0  0  0  0  0
    3.5334   -0.8960    0.0000 C   0  0  0  0  0  0  0  0  0
    3.5334   -0.0710    0.0000 C   0  0  0  0  0  0  0  0  0
    4.2478    0.3415    0.0000 C   0  0  0  0  0  0  0  0  0
    4.9623   -0.0710    0.0000 C   0  0  0  0  0  0  0  0  0
    4.9623   -0.8960    0.0000 C   0  0  0  0  0  0  0  0  0
    4.2478   -1.3085    0.0000 C   0  0  0  0  0  0  0  0  0
    2.4938   -1.9356    0.0000 C   0  0  0  0  0  0  0  0  0
    1.6868   -2.1071    0.0000 N   0  0  0  0  0  0  0  0  0
    1.4319   -2.8917    0.0000 C   0  0  0  0  0  0  0  0  0
    0.6249   -3.0632    0.0000 C   0  0  0  0  0  0  0  0  0
    0.0729   -2.4501    0.0000 C   0  0  0  0  0  0  0  0  0
    0.3278   -1.6655    0.0000 C   0  0  0  0  0  0  0  0  0
    1.1348   -1.4940    0.0000 C   0  0  0  0  0  0  0  0  0
   -0.7341   -2.6217    0.0000 C   0  0  0  0  0  0  0  0  0
   -0.9890   -3.4063    0.0000 C   0  0  0  0  0  0  0  0  0
   -1.7960   -3.5778    0.0000 C   0  0  0  0  0  0  0  0  0
   -2.3480   -2.9647    0.0000 C   0  0  0  0  0  0  0  0  0
   -2.0931   -2.1801    0.0000 C   0  0  0  0  0  0  0  0  0
   -1.2861   -2.0086    0.0000 C   0  0  0  0  0  0  0  0  0
  1  2  4  0  0  0  0
  1  5  4  0  0  0  0
  2  3  4  0  0  0  0
  3  4  4  0  0  0  0
  3 10  1  0  0  0  0
  4  5  4  0  0  0  0
  4  9  4  0  0  0  0
  5  6  4  0  0  0  0
  6  7  4  0  0  0  0
  7  8  4  0  0  0  0
  8  9  4  0  0  0  0
 10 11  1  0  0  0  0
 11 12  1  0  0  0  0
 11 16  1  0  0  0  0
 12 13  1  0  0  0  0
 13 14  1  0  0  0  0
 14 15  1  0  0  0  0
 14 17  1  0  0  0  0
 15 16  1  0  0  0  0
 17 18  4  0  0  0  0
 17 22  4  0  0  0  0
 18 19  4  0  0  0  0
 19 20  4  0  0  0  0
 20 21  4  0  0  0  0
 21 22  4  0  0  0  0
M  STY  1   1 DAT
M  SAL   1  1   1
M  SDT   1 MRV_IMPLICIT_H                                        
M  SDD   1     0.0000    0.0000    DR    ALL  0       0  
M  SED   1 IMPL_H1
M  END
>  <Name_Molregno>
90998

>  <DOPAMINE D2>
6.96

>  <DOPAMINE D3>
7.02

>  <DOPAMINE D4>
7.6

$$$$
91029
  Marvin  02231216192D 0   1.00000     0.00000     0

 28 31  0  0  0  0  0  0  0  0999 V2000
   -0.1716   -3.5727    0.0000 O   0  0  0  0  0  0  0  0  0
   -0.8861   -3.1602    0.0000 C   0  0  0  0  0  0  0  0  0
    0.5428   -3.1602    0.0000 C   0  0  0  0  0  0  0  0  0
    1.2573   -3.5727    0.0000 C   0  0  0  0  0  0  0  0  0
    1.9718   -3.1602    0.0000 C   0  0  0  0  0  0  0  0  0
    1.9718   -2.3352    0.0000 C   0  0  0  0  0  0  0  0  0
    1.2573   -1.9227    0.0000 C   0  0  0  0  0  0  0  0  0
    0.5428   -2.3352    0.0000 C   0  0  0  0  0  0  0  0  0
   -0.1716   -1.9227    0.0000 C   0  0  0  0  0  0  0  0  0
   -0.8861   -2.3352    0.0000 O   0  0  0  0  0  0  0  0  0
   -1.6006   -1.9227    0.0000 C   0  0  0  0  0  0  0  0  0
   -2.3150   -2.3352    0.0000 C   0  0  0  0  0  0  0  0  0
   -2.3150   -3.1602    0.0000 C   0  0  0  0  0  0  0  0  0
   -3.0295   -3.5727    0.0000 C   0  0  0  0  0  0  0  0  0
   -3.7440   -3.1602    0.0000 N   0  0  0  0  0  0  0  0  0
   -3.7440   -2.3352    0.0000 C   0  0  0  0  0  0  0  0  0
   -3.0295   -1.9227    0.0000 C   0  0  0  0  0  0  0  0  0
   -4.4585   -3.5727    0.0000 C   0  0  0  0  0  0  0  0  0
   -5.1729   -3.1602    0.0000 C   0  0  0  0  0  0  0  0  0
   -5.8874   -3.5727    0.0000 C   0  0  0  0  0  0  0  0  0
   -6.6019   -3.1602    0.0000 C   0  0  0  0  0  0  0  0  0
   -6.6019   -2.3352    0.0000 C   0  0  0  0  0  0  0  0  0
   -5.8874   -1.9227    0.0000 C   0  0  0  0  0  0  0  0  0
   -5.1729   -2.3352    0.0000 C   0  0  0  0  0  0  0  0  0
    2.6863   -1.9227    0.0000 C   0  0  0  0  0  0  0  0  0
    3.4007   -2.3352    0.0000 C   0  0  0  0  0  0  0  0  0
    3.4007   -3.1602    0.0000 C   0  0  0  0  0  0  0  0  0
    2.6863   -3.5727    0.0000 C   0  0  0  0  0  0  0  0  0
  1  2  1  0  0  0  0
  1  3  1  0  0  0  0
  3  4  4  0  0  0  0
  3  8  4  0  0  0  0
  4  5  4  0  0  0  0
  5  6  4  0  0  0  0
  5 28  4  0  0  0  0
  6  7  4  0  0  0  0
  6 25  4  0  0  0  0
  7  8  4  0  0  0  0
  8  9  1  0  0  0  0
  9 10  1  0  0  0  0
 10 11  1  0  0  0  0
 11 12  1  0  0  0  0
 12 13  1  0  0  0  0
 12 17  1  0  0  0  0
 13 14  1  0  0  0  0
 14 15  1  0  0  0  0
 15 16  1  0  0  0  0
 15 18  1  0  0  0  0
 16 17  1  0  0  0  0
 18 19  1  0  0  0  0
 19 20  4  0  0  0  0
 19 24  4  0  0  0  0
 20 21  4  0  0  0  0
 21 22  4  0  0  0  0
 22 23  4  0  0  0  0
 23 24  4  0  0  0  0
 25 26  4  0  0  0  0
 26 27  4  0  0  0  0
 27 28  4  0  0  0  0
M  END
>  <Name_Molregno>
91029

>  <DOPAMINE D2>
6

>  <DOPAMINE D4>
7.5

$$$$
91030
  Marvin  02231216192D 0   1.00000     0.00000     0

 28 31  0  0  1  0  0  0  0  0999 V2000
   -1.9023   -0.3936    0.0000 O   0  0  0  0  0  0  0  0  0
   -2.6168    0.0189    0.0000 C   0  0  0  0  0  0  0  0  0
   -1.1879    0.0189    0.0000 C   0  0  0  0  0  0  0  0  0
   -0.4734   -0.3936    0.0000 C   0  0  0  0  0  0  0  0  0
    0.2411    0.0189    0.0000 C   0  0  0  0  0  0  0  0  0
    0.2411    0.8439    0.0000 C   0  0  0  0  0  0  0  0  0
   -0.4734    1.2564    0.0000 C   0  0  0  0  0  0  0  0  0
   -1.1879    0.8439    0.0000 C   0  0  0  0  0  0  0  0  0
   -1.9023    1.2564    0.0000 C   0  0  0  0  0  0  0  0  0
   -2.6168    0.8439    0.0000 O   0  0  0  0  0  0  0  0  0
   -3.3313    1.2564    0.0000 C   0  0  0  0  0  0  0  0  0
   -4.0457    0.8439    0.0000 C   0  0  0  0  0  0  0  0  0
   -4.1320    0.0234    0.0000 C   0  0  0  0  0  0  0  0  0
   -4.9389   -0.1481    0.0000 C   0  0  0  0  0  0  0  0  0
   -5.3514    0.5664    0.0000 N   0  0  0  0  0  0  0  0  0
   -4.7994    1.1795    0.0000 C   0  0  0  0  0  0  0  0  0
   -6.1719    0.6526    0.0000 C   0  0  0  0  0  0  0  0  0
   -6.6569   -0.0148    0.0000 C   0  0  0  0  0  0  0  0  0
   -6.3213   -0.7685    0.0000 C   0  0  0  0  0  0  0  0  0
   -6.8062   -1.4359    0.0000 C   0  0  0  0  0  0  0  0  0
   -7.6267   -1.3497    0.0000 C   0  0  0  0  0  0  0  0  0
   -7.9623   -0.5960    0.0000 C   0  0  0  0  0  0  0  0  0
   -7.4773    0.0714    0.0000 C   0  0  0  0  0  0  0  0  0
   -1.9023    2.0814    0.0000 O   0  0  0  0  0  0  0  0  0
    0.9556    1.2564    0.0000 C   0  0  0  0  0  0  0  0  0
    1.6700    0.8439    0.0000 C   0  0  0  0  0  0  0  0  0
    1.6700    0.0189    0.0000 C   0  0  0  0  0  0  0  0  0
    0.9556   -0.3936    0.0000 C   0  0  0  0  0  0  0  0  0
  1  2  1  0  0  0  0
  1  3  1  0  0  0  0
  3  4  4  0  0  0  0
  3  8  4  0  0  0  0
  4  5  4  0  0  0  0
  5  6  4  0  0  0  0
  5 28  4  0  0  0  0
  6  7  4  0  0  0  0
  6 25  4  0  0  0  0
  7  8  4  0  0  0  0
  8  9  1  0  0  0  0
  9 10  1  0  0  0  0
  9 24  2  0  0  0  0
 10 11  1  0  0  0  0
 11 12  1  0  0  0  0
 12 13  1  0  0  0  0
 12 16  1  0  0  0  0
 13 14  1  0  0  0  0
 14 15  1  0  0  0  0
 15 16  1  0  0  0  0
 15 17  1  0  0  0  0
 17 18  1  0  0  0  0
 18 19  4  0  0  0  0
 18 23  4  0  0  0  0
 19 20  4  0  0  0  0
 20 21  4  0  0  0  0
 21 22  4  0  0  0  0
 22 23  4  0  0  0  0
 25 26  4  0  0  0  0
 26 27  4  0  0  0  0
 27 28  4  0  0  0  0
M  END
>  <Name_Molregno>
91030

>  <DOPAMINE D2>
5

>  <DOPAMINE D4>
7.7

$$$$
91060
  Marvin  02231216192D 0   1.00000     0.00000     0

 29 32  0  0  0  0  0  0  0  0999 V2000
   -0.1840   -3.5714    0.0000 O   0  0  0  0  0  0  0  0  0
   -0.8985   -3.1589    0.0000 C   0  0  0  0  0  0  0  0  0
    0.5304   -3.1589    0.0000 C   0  0  0  0  0  0  0  0  0
    1.2449   -3.5714    0.0000 C   0  0  0  0  0  0  0  0  0
    1.9594   -3.1589    0.0000 C   0  0  0  0  0  0  0  0  0
    1.9594   -2.3339    0.0000 C   0  0  0  0  0  0  0  0  0
    1.2449   -1.9214    0.0000 C   0  0  0  0  0  0  0  0  0
    0.5304   -2.3339    0.0000 C   0  0  0  0  0  0  0  0  0
   -0.1840   -1.9214    0.0000 C   0  0  0  0  0  0  0  0  0
   -0.1840   -1.0964    0.0000 O   0  0  0  0  0  0  0  0  0
   -0.8985   -2.3339    0.0000 N   0  0  0  0  0  0  0  0  0
   -1.6130   -1.9214    0.0000 C   0  0  0  0  0  0  0  0  0
   -2.3274   -2.3339    0.0000 C   0  0  0  0  0  0  0  0  0
   -2.3274   -3.1589    0.0000 C   0  0  0  0  0  0  0  0  0
   -3.0419   -3.5714    0.0000 C   0  0  0  0  0  0  0  0  0
   -3.7564   -3.1589    0.0000 N   0  0  0  0  0  0  0  0  0
   -3.7564   -2.3339    0.0000 C   0  0  0  0  0  0  0  0  0
   -3.0419   -1.9214    0.0000 C   0  0  0  0  0  0  0  0  0
   -4.4708   -3.5714    0.0000 C   0  0  0  0  0  0  0  0  0
   -5.1853   -3.1589    0.0000 C   0  0  0  0  0  0  0  0  0
   -5.8998   -3.5714    0.0000 C   0  0  0  0  0  0  0  0  0
   -6.6143   -3.1589    0.0000 C   0  0  0  0  0  0  0  0  0
   -6.6143   -2.3339    0.0000 C   0  0  0  0  0  0  0  0  0
   -5.8998   -1.9214    0.0000 C   0  0  0  0  0  0  0  0  0
   -5.1853   -2.3339    0.0000 C   0  0  0  0  0  0  0  0  0
    2.6739   -1.9214    0.0000 C   0  0  0  0  0  0  0  0  0
    3.3883   -2.3339    0.0000 C   0  0  0  0  0  0  0  0  0
    3.3883   -3.1589    0.0000 C   0  0  0  0  0  0  0  0  0
    2.6739   -3.5714    0.0000 C   0  0  0  0  0  0  0  0  0
  1  2  1  0  0  0  0
  1  3  1  0  0  0  0
  3  4  4  0  0  0  0
  3  8  4  0  0  0  0
  4  5  4  0  0  0  0
  5  6  4  0  0  0  0
  5 29  4  0  0  0  0
  6  7  4  0  0  0  0
  6 26  4  0  0  0  0
  7  8  4  0  0  0  0
  8  9  1  0  0  0  0
  9 10  2  0  0  0  0
  9 11  1  0  0  0  0
 11 12  1  0  0  0  0
 12 13  1  0  0  0  0
 13 14  1  0  0  0  0
 13 18  1  0  0  0  0
 14 15  1  0  0  0  0
 15 16  1  0  0  0  0
 16 17  1  0  0  0  0
 16 19  1  0  0  0  0
 17 18  1  0  0  0  0
 19 20  1  0  0  0  0
 20 21  4  0  0  0  0
 20 25  4  0  0  0  0
 21 22  4  0  0  0  0
 22 23  4  0  0  0  0
 23 24  4  0  0  0  0
 24 25  4  0  0  0  0
 26 27  4  0  0  0  0
 27 28  4  0  0  0  0
 28 29  4  0  0  0  0
M  END
>  <Name_Molregno>
91060

>  <DOPAMINE D2>
6.9

>  <DOPAMINE D4>
7.7

$$$$
91207
  Marvin  02231216192D 0   1.00000     0.00000     0

 26 29  0  0  0  0  0  0  0  0999 V2000
    6.6717    4.3658    0.0000 Cl  0  0  0  0  0  0  0  0  0
    6.6717    3.5408    0.0000 C   0  0  0  0  0  0  0  0  0
    7.3862    3.1283    0.0000 C   0  0  0  0  0  0  0  0  0
    7.3862    2.3033    0.0000 C   0  0  0  0  0  0  0  0  0
    6.6717    1.8908    0.0000 C   0  0  0  0  0  0  0  0  0
    5.9572    2.3033    0.0000 C   0  0  0  0  0  0  0  0  0
    5.9572    3.1283    0.0000 C   0  0  0  0  0  0  0  0  0
    6.6717    1.0658    0.0000 C   0  0  0  0  0  0  0  0  0
    7.3391    0.5809    0.0000 O   0  0  0  0  0  0  0  0  0
    7.0842   -0.2037    0.0000 N   0  0  0  0  0  0  0  0  0
    6.2592   -0.2037    0.0000 C   0  0  0  0  0  0  0  0  0
    6.0043    0.5809    0.0000 C   0  0  0  0  0  0  0  0  0
    5.7743   -0.8712    0.0000 C   0  0  0  0  0  0  0  0  0
    6.1098   -1.6249    0.0000 C   0  0  0  0  0  0  0  0  0
    5.6249   -2.2923    0.0000 C   0  0  0  0  0  0  0  0  0
    4.8044   -2.2061    0.0000 N   0  0  0  0  0  0  0  0  0
    4.4689   -1.4524    0.0000 C   0  0  0  0  0  0  0  0  0
    4.9538   -0.7849    0.0000 C   0  0  0  0  0  0  0  0  0
    4.3195   -2.8735    0.0000 C   0  0  0  0  0  0  0  0  0
    3.4990   -2.7873    0.0000 C   0  0  0  0  0  0  0  0  0
    3.0141   -3.4547    0.0000 C   0  0  0  0  0  0  0  0  0
    2.1936   -3.3685    0.0000 C   0  0  0  0  0  0  0  0  0
    1.8581   -2.6148    0.0000 C   0  0  0  0  0  0  0  0  0
    1.0376   -2.5286    0.0000 Cl  0  0  0  0  0  0  0  0  0
    2.3430   -1.9474    0.0000 C   0  0  0  0  0  0  0  0  0
    3.1635   -2.0336    0.0000 C   0  0  0  0  0  0  0  0  0
  1  2  1  0  0  0  0
  2  3  4  0  0  0  0
  2  7  4  0  0  0  0
  3  4  4  0  0  0  0
  4  5  4  0  0  0  0
  5  6  4  0  0  0  0
  5  8  1  0  0  0  0
  6  7  4  0  0  0  0
  8  9  4  0  0  0  0
  8 12  4  0  0  0  0
  9 10  4  0  0  0  0
 10 11  4  0  0  0  0
 11 12  4  0  0  0  0
 11 13  1  0  0  0  0
 13 14  1  0  0  0  0
 13 18  1  0  0  0  0
 14 15  1  0  0  0  0
 15 16  1  0  0  0  0
 16 17  1  0  0  0  0
 16 19  1  0  0  0  0
 17 18  1  0  0  0  0
 19 20  1  0  0  0  0
 20 21  4  0  0  0  0
 20 26  4  0  0  0  0
 21 22  4  0  0  0  0
 22 23  4  0  0  0  0
 23 24  1  0  0  0  0
 23 25  4  0  0  0  0
 25 26  4  0  0  0  0
M  END
>  <Name_Molregno>
91207

>  <DOPAMINE D2>
6.8

>  <DOPAMINE D3>
6.37

>  <DOPAMINE D4>
7.36

$$$$
91269
  Marvin  02231216192D 0   1.00000     0.00000     0

 27 30  0  0  0  0  0  0  0  0999 V2000
    6.2464    6.3118    0.0000 Cl  0  0  0  0  0  0  0  0  0
    6.2464    5.4868    0.0000 C   0  0  0  0  0  0  0  0  0
    6.9608    5.0743    0.0000 C   0  0  0  0  0  0  0  0  0
    6.9608    4.2493    0.0000 C   0  0  0  0  0  0  0  0  0
    6.2464    3.8368    0.0000 C   0  0  0  0  0  0  0  0  0
    5.5319    4.2493    0.0000 C   0  0  0  0  0  0  0  0  0
    5.5319    5.0743    0.0000 C   0  0  0  0  0  0  0  0  0
    6.2464    3.0118    0.0000 C   0  0  0  0  0  0  0  0  0
    6.9138    2.5269    0.0000 N   0  0  0  0  0  0  0  0  0
    6.6589    1.7423    0.0000 N   0  0  0  0  0  0  0  0  0
    5.8339    1.7423    0.0000 C   0  0  0  0  0  0  0  0  0
    5.3490    1.0748    0.0000 C   0  0  0  0  0  0  0  0  0
    5.6845    0.3212    0.0000 C   0  0  0  0  0  0  0  0  0
    5.1996   -0.3463    0.0000 C   0  0  0  0  0  0  0  0  0
    4.3791   -0.2600    0.0000 N   0  0  0  0  0  0  0  0  0
    4.0436    0.4936    0.0000 C   0  0  0  0  0  0  0  0  0
    4.5285    1.1611    0.0000 C   0  0  0  0  0  0  0  0  0
    3.8942   -0.9275    0.0000 C   0  0  0  0  0  0  0  0  0
    4.2297   -1.6812    0.0000 C   0  0  0  0  0  0  0  0  0
    3.7448   -2.3486    0.0000 C   0  0  0  0  0  0  0  0  0
    4.0804   -3.1023    0.0000 C   0  0  0  0  0  0  0  0  0
    3.5955   -3.7697    0.0000 C   0  0  0  0  0  0  0  0  0
    2.7750   -3.6835    0.0000 C   0  0  0  0  0  0  0  0  0
    2.4394   -2.9298    0.0000 C   0  0  0  0  0  0  0  0  0
    2.9243   -2.2624    0.0000 C   0  0  0  0  0  0  0  0  0
    5.5789    2.5269    0.0000 C   0  0  0  0  0  0  0  0  0
    4.7943    2.7818    0.0000 C   0  0  0  0  0  0  0  0  0
  1  2  1  0  0  0  0
  2  3  4  0  0  0  0
  2  7  4  0  0  0  0
  3  4  4  0  0  0  0
  4  5  4  0  0  0  0
  5  6  4  0  0  0  0
  5  8  1  0  0  0  0
  6  7  4  0  0  0  0
  8  9  4  0  0  0  0
  8 26  4  0  0  0  0
  9 10  4  0  0  0  0
 10 11  4  0  0  0  0
 11 12  1  0  0  0  0
 11 26  4  0  0  0  0
 12 13  1  0  0  0  0
 12 17  1  0  0  0  0
 13 14  1  0  0  0  0
 14 15  1  0  0  0  0
 15 16  1  0  0  0  0
 15 18  1  0  0  0  0
 16 17  1  0  0  0  0
 18 19  1  0  0  0  0
 19 20  1  0  0  0  0
 20 21  4  0  0  0  0
 20 25  4  0  0  0  0
 21 22  4  0  0  0  0
 22 23  4  0  0  0  0
 23 24  4  0  0  0  0
 24 25  4  0  0  0  0
 26 27  1  0  0  0  0
M  STY  1   1 DAT
M  SAL   1  1   9
M  SDT   1 MRV_IMPLICIT_H                                        
M  SDD   1     0.0000    0.0000    DR    ALL  0       0  
M  SED   1 IMPL_H1
M  END
>  <Name_Molregno>
91269

>  <DOPAMINE D2>
6.54

>  <DOPAMINE D3>
5.92

>  <DOPAMINE D4>
8.92

$$$$
91270
  Marvin  02231216192D 0   1.00000     0.00000     0

 26 29  0  0  0  0  0  0  0  0999 V2000
    6.6717    4.3658    0.0000 Cl  0  0  0  0  0  0  0  0  0
    6.6717    3.5408    0.0000 C   0  0  0  0  0  0  0  0  0
    7.3862    3.1283    0.0000 C   0  0  0  0  0  0  0  0  0
    7.3862    2.3033    0.0000 C   0  0  0  0  0  0  0  0  0
    6.6717    1.8908    0.0000 C   0  0  0  0  0  0  0  0  0
    5.9572    2.3033    0.0000 C   0  0  0  0  0  0  0  0  0
    5.9572    3.1283    0.0000 C   0  0  0  0  0  0  0  0  0
    6.6717    1.0658    0.0000 C   0  0  0  0  0  0  0  0  0
    7.3391    0.5809    0.0000 N   0  0  0  0  0  0  0  0  0
    7.0842   -0.2037    0.0000 N   0  0  0  0  0  0  0  0  0
    6.2592   -0.2037    0.0000 C   0  0  0  0  0  0  0  0  0
    6.0043    0.5809    0.0000 C   0  0  0  0  0  0  0  0  0
    5.7743   -0.8712    0.0000 C   0  0  0  0  0  0  0  0  0
    6.1098   -1.6249    0.0000 C   0  0  0  0  0  0  0  0  0
    5.6249   -2.2923    0.0000 C   0  0  0  0  0  0  0  0  0
    4.8044   -2.2061    0.0000 N   0  0  0  0  0  0  0  0  0
    4.4689   -1.4524    0.0000 C   0  0  0  0  0  0  0  0  0
    4.9538   -0.7849    0.0000 C   0  0  0  0  0  0  0  0  0
    4.3195   -2.8735    0.0000 C   0  0  0  0  0  0  0  0  0
    3.4990   -2.7873    0.0000 C   0  0  0  0  0  0  0  0  0
    3.0141   -3.4547    0.0000 C   0  0  0  0  0  0  0  0  0
    2.1936   -3.3685    0.0000 C   0  0  0  0  0  0  0  0  0
    1.8581   -2.6148    0.0000 C   0  0  0  0  0  0  0  0  0
    1.0376   -2.5286    0.0000 Cl  0  0  0  0  0  0  0  0  0
    2.3430   -1.9474    0.0000 C   0  0  0  0  0  0  0  0  0
    3.1635   -2.0336    0.0000 C   0  0  0  0  0  0  0  0  0
  1  2  1  0  0  0  0
  2  3  4  0  0  0  0
  2  7  4  0  0  0  0
  3  4  4  0  0  0  0
  4  5  4  0  0  0  0
  5  6  4  0  0  0  0
  5  8  1  0  0  0  0
  6  7  4  0  0  0  0
  8  9  4  0  0  0  0
  8 12  4  0  0  0  0
  9 10  4  0  0  0  0
 10 11  4  0  0  0  0
 11 12  4  0  0  0  0
 11 13  1  0  0  0  0
 13 14  1  0  0  0  0
 13 18  1  0  0  0  0
 14 15  1  0  0  0  0
 15 16  1  0  0  0  0
 16 17  1  0  0  0  0
 16 19  1  0  0  0  0
 17 18  1  0  0  0  0
 19 20  1  0  0  0  0
 20 21  4  0  0  0  0
 20 26  4  0  0  0  0
 21 22  4  0  0  0  0
 22 23  4  0  0  0  0
 23 24  1  0  0  0  0
 23 25  4  0  0  0  0
 25 26  4  0  0  0  0
M  STY  1   1 DAT
M  SAL   1  1   9
M  SDT   1 MRV_IMPLICIT_H                                        
M  SDD   1     0.0000    0.0000    DR    ALL  0       0  
M  SED   1 IMPL_H1
M  END
>  <Name_Molregno>
91270

>  <DOPAMINE D2>
6.62

>  <DOPAMINE D3>
6.09

>  <DOPAMINE D4>
7.21

$$$$
91455
  Marvin  02231216192D 0   1.00000     0.00000     0

 22 25  0  0  0  0  0  0  0  0999 V2000
    2.7487    0.1839    0.0000 N   0  0  0  0  0  0  0  0  0
    2.2638   -0.4835    0.0000 C   0  0  0  0  0  0  0  0  0
    2.7487   -1.1509    0.0000 C   0  0  0  0  0  0  0  0  0
    3.5334   -0.8960    0.0000 C   0  0  0  0  0  0  0  0  0
    3.5334   -0.0710    0.0000 C   0  0  0  0  0  0  0  0  0
    4.2478    0.3415    0.0000 C   0  0  0  0  0  0  0  0  0
    4.9623   -0.0710    0.0000 C   0  0  0  0  0  0  0  0  0
    4.9623   -0.8960    0.0000 C   0  0  0  0  0  0  0  0  0
    4.2478   -1.3085    0.0000 C   0  0  0  0  0  0  0  0  0
    2.4938   -1.9356    0.0000 C   0  0  0  0  0  0  0  0  0
    1.6868   -2.1071    0.0000 N   0  0  0  0  0  0  0  0  0
    1.4319   -2.8917    0.0000 C   0  0  0  0  0  0  0  0  0
    0.6249   -3.0632    0.0000 C   0  0  0  0  0  0  0  0  0
    0.0729   -2.4501    0.0000 N   0  0  0  0  0  0  0  0  0
    0.3278   -1.6655    0.0000 C   0  0  0  0  0  0  0  0  0
    1.1348   -1.4940    0.0000 C   0  0  0  0  0  0  0  0  0
   -0.7341   -2.6217    0.0000 C   0  0  0  0  0  0  0  0  0
   -0.9890   -3.4063    0.0000 C   0  0  0  0  0  0  0  0  0
   -1.7960   -3.5778    0.0000 C   0  0  0  0  0  0  0  0  0
   -2.3480   -2.9647    0.0000 C   0  0  0  0  0  0  0  0  0
   -2.0931   -2.1801    0.0000 C   0  0  0  0  0  0  0  0  0
   -1.2861   -2.0086    0.0000 C   0  0  0  0  0  0  0  0  0
  1  2  4  0  0  0  0
  1  5  4  0  0  0  0
  2  3  4  0  0  0  0
  3  4  4  0  0  0  0
  3 10  1  0  0  0  0
  4  5  4  0  0  0  0
  4  9  4  0  0  0  0
  5  6  4  0  0  0  0
  6  7  4  0  0  0  0
  7  8  4  0  0  0  0
  8  9  4  0  0  0  0
 10 11  1  0  0  0  0
 11 12  1  0  0  0  0
 11 16  1  0  0  0  0
 12 13  1  0  0  0  0
 13 14  1  0  0  0  0
 14 15  1  0  0  0  0
 14 17  1  0  0  0  0
 15 16  1  0  0  0  0
 17 18  4  0  0  0  0
 17 22  4  0  0  0  0
 18 19  4  0  0  0  0
 19 20  4  0  0  0  0
 20 21  4  0  0  0  0
 21 22  4  0  0  0  0
M  STY  1   1 DAT
M  SAL   1  1   1
M  SDT   1 MRV_IMPLICIT_H                                        
M  SDD   1     0.0000    0.0000    DR    ALL  0       0  
M  SED   1 IMPL_H1
M  END
>  <Name_Molregno>
91455

>  <DOPAMINE D2>
6.92

>  <DOPAMINE D3>
6.55

>  <DOPAMINE D4>
8.1

$$$$
95285
  Marvin  02231216192D 0   1.00000     0.00000     0

 21 23  0  0  0  0  0  0  0  0999 V2000
   -0.0159   -0.6797    0.0000 O   0  0  0  0  0  0  0  0  0
    0.6986   -0.2672    0.0000 C   0  0  0  0  0  0  0  0  0
    1.4131   -0.6797    0.0000 C   0  0  0  0  0  0  0  0  0
    2.1275   -0.2672    0.0000 N   0  0  0  0  0  0  0  0  0
    2.8420   -0.6797    0.0000 C   0  0  0  0  0  0  0  0  0
    3.5565   -0.2672    0.0000 C   0  0  0  0  0  0  0  0  0
    3.5565    0.5578    0.0000 C   0  0  0  0  0  0  0  0  0
    4.2709    0.9703    0.0000 C   0  0  0  0  0  0  0  0  0
    4.9854    0.5578    0.0000 C   0  0  0  0  0  0  0  0  0
    4.9854   -0.2672    0.0000 C   0  0  0  0  0  0  0  0  0
    4.2709   -0.6797    0.0000 C   0  0  0  0  0  0  0  0  0
   -0.7304   -0.2672    0.0000 C   0  0  0  0  0  0  0  0  0
   -1.4448   -0.6797    0.0000 C   0  0  0  0  0  0  0  0  0
   -1.6164   -1.4867    0.0000 C   0  0  0  0  0  0  0  0  0
   -2.4368   -1.5729    0.0000 C   0  0  0  0  0  0  0  0  0
   -2.8493   -2.2874    0.0000 O   0  0  0  0  0  0  0  0  0
   -2.7724   -0.8192    0.0000 N   0  0  0  0  0  0  0  0  0
   -2.1593   -0.2672    0.0000 C   0  0  0  0  0  0  0  0  0
   -2.1593    0.5578    0.0000 C   0  0  0  0  0  0  0  0  0
   -1.4448    0.9703    0.0000 C   0  0  0  0  0  0  0  0  0
   -0.7304    0.5578    0.0000 C   0  0  0  0  0  0  0  0  0
  1  2  1  0  0  0  0
  1 12  1  0  0  0  0
  2  3  1  0  0  0  0
  3  4  1  0  0  0  0
  4  5  1  0  0  0  0
  5  6  1  0  0  0  0
  6  7  4  0  0  0  0
  6 11  4  0  0  0  0
  7  8  4  0  0  0  0
  8  9  4  0  0  0  0
  9 10  4  0  0  0  0
 10 11  4  0  0  0  0
 12 13  4  0  0  0  0
 12 21  4  0  0  0  0
 13 14  1  0  0  0  0
 13 18  4  0  0  0  0
 14 15  1  0  0  0  0
 15 16  2  0  0  0  0
 15 17  1  0  0  0  0
 17 18  1  0  0  0  0
 18 19  4  0  0  0  0
 19 20  4  0  0  0  0
 20 21  4  0  0  0  0
M  END
>  <Name_Molregno>
95285

>  <DOPAMINE D2>
8.37

>  <DOPAMINE D3>
8.55

>  <DOPAMINE D4>
8

$$$$
95881
  Marvin  02231216192D 0   1.00000     0.00000     0

 35 39  0  0  0  0  0  0  0  0999 V2000
    0.3613   -0.8131    0.0000 Cl  0  0  0  0  0  0  0  0  0
    0.3613   -1.6381    0.0000 C   0  0  0  0  0  0  0  0  0
    1.0757   -2.0506    0.0000 C   0  0  0  0  0  0  0  0  0
    1.7902   -1.6381    0.0000 N   0  0  0  0  0  0  0  0  0
    1.7902   -0.8131    0.0000 C   0  0  0  0  0  0  0  0  0
    2.5047   -0.4006    0.0000 C   0  0  0  0  0  0  0  0  0
    3.2191   -0.8131    0.0000 N   0  0  0  0  0  0  0  0  0
    3.2191   -1.6381    0.0000 C   0  0  0  0  0  0  0  0  0
    2.5047   -2.0506    0.0000 C   0  0  0  0  0  0  0  0  0
    3.9336   -0.4006    0.0000 C   0  0  0  0  0  0  0  0  0
    4.6481   -0.8131    0.0000 C   0  0  0  0  0  0  0  0  0
    5.3626   -0.4006    0.0000 C   0  0  0  0  0  0  0  0  0
    6.0770   -0.8131    0.0000 C   0  0  0  0  0  0  0  0  0
    6.7915   -0.4006    0.0000 N   0  0  0  0  0  0  0  0  0
    7.5060   -0.8131    0.0000 C   0  0  0  0  0  0  0  0  0
    7.5060   -1.6381    0.0000 O   0  0  0  0  0  0  0  0  0
    8.2204   -0.4006    0.0000 C   0  0  0  0  0  0  0  0  0
    8.2204    0.4244    0.0000 C   0  0  0  0  0  0  0  0  0
    8.9349    0.8369    0.0000 C   0  0  0  0  0  0  0  0  0
    9.6494    0.4244    0.0000 C   0  0  0  0  0  0  0  0  0
    9.6494   -0.4006    0.0000 C   0  0  0  0  0  0  0  0  0
    8.9349   -0.8131    0.0000 C   0  0  0  0  0  0  0  0  0
    8.7634    1.6439    0.0000 C   0  0  0  0  0  0  0  0  0
    9.3154    2.2570    0.0000 O   0  0  0  0  0  0  0  0  0
    7.9429    1.7301    0.0000 C   0  0  0  0  0  0  0  0  0
    7.6073    0.9765    0.0000 C   0  0  0  0  0  0  0  0  0
    6.7869    0.8902    0.0000 C   0  0  0  0  0  0  0  0  0
    6.3019    1.5577    0.0000 C   0  0  0  0  0  0  0  0  0
    6.6375    2.3113    0.0000 C   0  0  0  0  0  0  0  0  0
    7.4580    2.3976    0.0000 C   0  0  0  0  0  0  0  0  0
    1.0757   -2.8756    0.0000 C   0  0  0  0  0  0  0  0  0
    0.3613   -3.2881    0.0000 C   0  0  0  0  0  0  0  0  0
   -0.3532   -2.8756    0.0000 C   0  0  0  0  0  0  0  0  0
   -0.3532   -2.0506    0.0000 C   0  0  0  0  0  0  0  0  0
   -1.0677   -1.6381    0.0000 Cl  0  0  0  0  0  0  0  0  0
  1  2  1  0  0  0  0
  2  3  4  0  0  0  0
  2 34  4  0  0  0  0
  3  4  1  0  0  0  0
  3 31  4  0  0  0  0
  4  5  1  0  0  0  0
  4  9  1  0  0  0  0
  5  6  1  0  0  0  0
  6  7  1  0  0  0  0
  7  8  1  0  0  0  0
  7 10  1  0  0  0  0
  8  9  1  0  0  0  0
 10 11  1  0  0  0  0
 11 12  1  0  0  0  0
 12 13  1  0  0  0  0
 13 14  1  0  0  0  0
 14 15  1  0  0  0  0
 15 16  2  0  0  0  0
 15 17  1  0  0  0  0
 17 18  4  0  0  0  0
 17 22  4  0  0  0  0
 18 19  4  0  0  0  0
 18 26  1  0  0  0  0
 19 20  4  0  0  0  0
 19 23  1  0  0  0  0
 20 21  4  0  0  0  0
 21 22  4  0  0  0  0
 23 24  2  0  0  0  0
 23 25  1  0  0  0  0
 25 26  4  0  0  0  0
 25 30  4  0  0  0  0
 26 27  4  0  0  0  0
 27 28  4  0  0  0  0
 28 29  4  0  0  0  0
 29 30  4  0  0  0  0
 31 32  4  0  0  0  0
 32 33  4  0  0  0  0
 33 34  4  0  0  0  0
 34 35  1  0  0  0  0
M  END
>  <Name_Molregno>
95881

>  <DOPAMINE D2>
7.43

>  <DOPAMINE D3>
8.36

>  <DOPAMINE D4>
5.84

$$$$
95893
  Marvin  02231216192D 0   1.00000     0.00000     0

 20 22  0  0  0  0  0  0  0  0999 V2000
   -0.0237   -0.0097    0.0000 O   0  0  0  0  0  0  0  0  0
    0.6907    0.4028    0.0000 C   0  0  0  0  0  0  0  0  0
    1.4052   -0.0097    0.0000 C   0  0  0  0  0  0  0  0  0
    2.1197    0.4028    0.0000 N   0  0  0  0  0  0  0  0  0
    2.8342   -0.0097    0.0000 C   0  0  0  0  0  0  0  0  0
    3.5486    0.4028    0.0000 C   0  0  0  0  0  0  0  0  0
    3.5486    1.2278    0.0000 C   0  0  0  0  0  0  0  0  0
    4.2631    1.6403    0.0000 C   0  0  0  0  0  0  0  0  0
    4.9776    1.2278    0.0000 C   0  0  0  0  0  0  0  0  0
    4.9776    0.4028    0.0000 C   0  0  0  0  0  0  0  0  0
    4.2631   -0.0097    0.0000 C   0  0  0  0  0  0  0  0  0
   -0.7382    0.4028    0.0000 C   0  0  0  0  0  0  0  0  0
   -1.4527   -0.0097    0.0000 C   0  0  0  0  0  0  0  0  0
   -2.1671    0.4028    0.0000 C   0  0  0  0  0  0  0  0  0
   -2.7802   -0.1493    0.0000 N   0  0  0  0  0  0  0  0  0
   -2.4447   -0.9029    0.0000 C   0  0  0  0  0  0  0  0  0
   -1.6242   -0.8167    0.0000 C   0  0  0  0  0  0  0  0  0
   -2.1671    1.2278    0.0000 C   0  0  0  0  0  0  0  0  0
   -1.4527    1.6403    0.0000 C   0  0  0  0  0  0  0  0  0
   -0.7382    1.2278    0.0000 C   0  0  0  0  0  0  0  0  0
  1  2  1  0  0  0  0
  1 12  1  0  0  0  0
  2  3  1  0  0  0  0
  3  4  1  0  0  0  0
  4  5  1  0  0  0  0
  5  6  1  0  0  0  0
  6  7  4  0  0  0  0
  6 11  4  0  0  0  0
  7  8  4  0  0  0  0
  8  9  4  0  0  0  0
  9 10  4  0  0  0  0
 10 11  4  0  0  0  0
 12 13  4  0  0  0  0
 12 20  4  0  0  0  0
 13 14  4  0  0  0  0
 13 17  4  0  0  0  0
 14 15  4  0  0  0  0
 14 18  4  0  0  0  0
 15 16  4  0  0  0  0
 16 17  4  0  0  0  0
 18 19  4  0  0  0  0
 19 20  4  0  0  0  0
M  STY  1   1 DAT
M  SAL   1  1  15
M  SDT   1 MRV_IMPLICIT_H                                        
M  SDD   1     0.0000    0.0000    DR    ALL  0       0  
M  SED   1 IMPL_H1
M  END
>  <Name_Molregno>
95893

>  <DOPAMINE D2>
7.09

>  <DOPAMINE D3>
7.71

>  <DOPAMINE D4>
6.64

$$$$
95917
  Marvin  02231216192D 0   1.00000     0.00000     0

 34 38  0  0  0  0  0  0  0  0999 V2000
   -0.1357    0.0002    0.0000 Cl  0  0  0  0  0  0  0  0  0
   -0.1357   -0.8248    0.0000 C   0  0  0  0  0  0  0  0  0
    0.5788   -1.2373    0.0000 C   0  0  0  0  0  0  0  0  0
    1.2932   -0.8248    0.0000 N   0  0  0  0  0  0  0  0  0
    1.2932    0.0002    0.0000 C   0  0  0  0  0  0  0  0  0
    2.0077    0.4127    0.0000 C   0  0  0  0  0  0  0  0  0
    2.7222    0.0002    0.0000 N   0  0  0  0  0  0  0  0  0
    2.7222   -0.8248    0.0000 C   0  0  0  0  0  0  0  0  0
    2.0077   -1.2373    0.0000 C   0  0  0  0  0  0  0  0  0
    3.4366    0.4127    0.0000 C   0  0  0  0  0  0  0  0  0
    4.1511    0.0002    0.0000 C   0  0  0  0  0  0  0  0  0
    4.8656    0.4127    0.0000 C   0  0  0  0  0  0  0  0  0
    5.5800    0.0002    0.0000 C   0  0  0  0  0  0  0  0  0
    6.2945    0.4127    0.0000 N   0  0  0  0  0  0  0  0  0
    7.0090    0.0002    0.0000 C   0  0  0  0  0  0  0  0  0
    7.0090   -0.8248    0.0000 O   0  0  0  0  0  0  0  0  0
    7.7235    0.4127    0.0000 C   0  0  0  0  0  0  0  0  0
    8.4379    0.0002    0.0000 C   0  0  0  0  0  0  0  0  0
    9.1524    0.4127    0.0000 C   0  0  0  0  0  0  0  0  0
    9.9370    0.1578    0.0000 C   0  0  0  0  0  0  0  0  0
   10.4219    0.8252    0.0000 C   0  0  0  0  0  0  0  0  0
    9.9370    1.4927    0.0000 C   0  0  0  0  0  0  0  0  0
    9.1524    1.2377    0.0000 C   0  0  0  0  0  0  0  0  0
    8.4379    1.6502    0.0000 C   0  0  0  0  0  0  0  0  0
    7.7235    1.2377    0.0000 C   0  0  0  0  0  0  0  0  0
   10.2726    2.2464    0.0000 C   0  0  0  0  0  0  0  0  0
   11.0931    2.3326    0.0000 C   0  0  0  0  0  0  0  0  0
   11.5780    1.6652    0.0000 C   0  0  0  0  0  0  0  0  0
   11.2424    0.9115    0.0000 C   0  0  0  0  0  0  0  0  0
    0.5788   -2.0623    0.0000 C   0  0  0  0  0  0  0  0  0
   -0.1357   -2.4748    0.0000 C   0  0  0  0  0  0  0  0  0
   -0.8502   -2.0623    0.0000 C   0  0  0  0  0  0  0  0  0
   -0.8502   -1.2373    0.0000 C   0  0  0  0  0  0  0  0  0
   -1.5647   -0.8248    0.0000 Cl  0  0  0  0  0  0  0  0  0
  1  2  1  0  0  0  0
  2  3  4  0  0  0  0
  2 33  4  0  0  0  0
  3  4  1  0  0  0  0
  3 30  4  0  0  0  0
  4  5  1  0  0  0  0
  4  9  1  0  0  0  0
  5  6  1  0  0  0  0
  6  7  1  0  0  0  0
  7  8  1  0  0  0  0
  7 10  1  0  0  0  0
  8  9  1  0  0  0  0
 10 11  1  0  0  0  0
 11 12  1  0  0  0  0
 12 13  1  0  0  0  0
 13 14  1  0  0  0  0
 14 15  1  0  0  0  0
 15 16  2  0  0  0  0
 15 17  1  0  0  0  0
 17 18  4  0  0  0  0
 17 25  4  0  0  0  0
 18 19  4  0  0  0  0
 19 20  1  0  0  0  0
 19 23  4  0  0  0  0
 20 21  1  0  0  0  0
 21 22  4  0  0  0  0
 21 29  4  0  0  0  0
 22 23  1  0  0  0  0
 22 26  4  0  0  0  0
 23 24  4  0  0  0  0
 24 25  4  0  0  0  0
 26 27  4  0  0  0  0
 27 28  4  0  0  0  0
 28 29  4  0  0  0  0
 30 31  4  0  0  0  0
 31 32  4  0  0  0  0
 32 33  4  0  0  0  0
 33 34  1  0  0  0  0
M  END
>  <Name_Molregno>
95917

>  <5-HT1A>
5.69

>  <5-HT2A>
6.17

>  <5-HT2C>
6.39

>  <DOPAMINE D2>
6.75

>  <DOPAMINE D3>
8.69

>  <DOPAMINE D4>
5.3

$$$$
96185
  Marvin  02231216192D 0   1.00000     0.00000     0

 18 19  0  0  0  0  0  0  0  0999 V2000
   -0.0286   -1.1714    0.0000 O   0  0  0  0  0  0  0  0  0
    0.6859   -0.7589    0.0000 C   0  0  0  0  0  0  0  0  0
    1.4003   -1.1714    0.0000 C   0  0  0  0  0  0  0  0  0
    2.1148   -0.7589    0.0000 N   0  0  0  0  0  0  0  0  0
    2.8293   -1.1714    0.0000 C   0  0  0  0  0  0  0  0  0
    3.5437   -0.7589    0.0000 C   0  0  0  0  0  0  0  0  0
    3.5437    0.0661    0.0000 C   0  0  0  0  0  0  0  0  0
    4.2582    0.4786    0.0000 C   0  0  0  0  0  0  0  0  0
    4.9727    0.0661    0.0000 C   0  0  0  0  0  0  0  0  0
    4.9727   -0.7589    0.0000 C   0  0  0  0  0  0  0  0  0
    4.2582   -1.1714    0.0000 C   0  0  0  0  0  0  0  0  0
   -0.7431   -0.7589    0.0000 C   0  0  0  0  0  0  0  0  0
   -1.4576   -1.1714    0.0000 C   0  0  0  0  0  0  0  0  0
   -2.1720   -0.7589    0.0000 C   0  0  0  0  0  0  0  0  0
   -2.8865   -1.1714    0.0000 O   0  0  0  0  0  0  0  0  0
   -2.1720    0.0661    0.0000 C   0  0  0  0  0  0  0  0  0
   -1.4576    0.4786    0.0000 C   0  0  0  0  0  0  0  0  0
   -0.7431    0.0661    0.0000 C   0  0  0  0  0  0  0  0  0
  1  2  1  0  0  0  0
  1 12  1  0  0  0  0
  2  3  1  0  0  0  0
  3  4  1  0  0  0  0
  4  5  1  0  0  0  0
  5  6  1  0  0  0  0
  6  7  4  0  0  0  0
  6 11  4  0  0  0  0
  7  8  4  0  0  0  0
  8  9  4  0  0  0  0
  9 10  4  0  0  0  0
 10 11  4  0  0  0  0
 12 13  4  0  0  0  0
 12 18  4  0  0  0  0
 13 14  4  0  0  0  0
 14 15  1  0  0  0  0
 14 16  4  0  0  0  0
 16 17  4  0  0  0  0
 17 18  4  0  0  0  0
M  END
>  <Name_Molregno>
96185

>  <DOPAMINE D2>
7.12

>  <DOPAMINE D3>
7.96

>  <DOPAMINE D4>
7.09

$$$$
96693
  Marvin  02231216192D 0   1.00000     0.00000     0

 30 33  0  0  0  0  0  0  0  0999 V2000
   -0.1145    0.0206    0.0000 Cl  0  0  0  0  0  0  0  0  0
   -0.1145   -0.8044    0.0000 C   0  0  0  0  0  0  0  0  0
    0.6000   -1.2169    0.0000 C   0  0  0  0  0  0  0  0  0
    1.3144   -0.8044    0.0000 N   0  0  0  0  0  0  0  0  0
    1.3144    0.0206    0.0000 C   0  0  0  0  0  0  0  0  0
    2.0289    0.4331    0.0000 C   0  0  0  0  0  0  0  0  0
    2.7434    0.0206    0.0000 N   0  0  0  0  0  0  0  0  0
    2.7434   -0.8044    0.0000 C   0  0  0  0  0  0  0  0  0
    2.0289   -1.2169    0.0000 C   0  0  0  0  0  0  0  0  0
    3.4579    0.4331    0.0000 C   0  0  0  0  0  0  0  0  0
    4.1723    0.0206    0.0000 C   0  0  0  0  0  0  0  0  0
    4.8868    0.4331    0.0000 C   0  0  0  0  0  0  0  0  0
    5.6013    0.0206    0.0000 C   0  0  0  0  0  0  0  0  0
    6.3157    0.4331    0.0000 N   0  0  0  0  0  0  0  0  0
    7.0302    0.0206    0.0000 C   0  0  0  0  0  0  0  0  0
    7.0302   -0.8044    0.0000 O   0  0  0  0  0  0  0  0  0
    7.7447    0.4331    0.0000 C   0  0  0  0  0  0  0  0  0
    8.4984    0.0976    0.0000 S   0  0  0  0  0  0  0  0  0
    9.0504    0.7107    0.0000 C   0  0  0  0  0  0  0  0  0
    8.6379    1.4251    0.0000 C   0  0  0  0  0  0  0  0  0
    7.8309    1.2536    0.0000 C   0  0  0  0  0  0  0  0  0
    9.0504    2.1396    0.0000 C   0  0  0  0  0  0  0  0  0
    9.8754    2.1396    0.0000 C   0  0  0  0  0  0  0  0  0
   10.2879    1.4251    0.0000 C   0  0  0  0  0  0  0  0  0
    9.8754    0.7107    0.0000 C   0  0  0  0  0  0  0  0  0
    0.6000   -2.0419    0.0000 C   0  0  0  0  0  0  0  0  0
   -0.1145   -2.4544    0.0000 C   0  0  0  0  0  0  0  0  0
   -0.8290   -2.0419    0.0000 C   0  0  0  0  0  0  0  0  0
   -0.8290   -1.2169    0.0000 C   0  0  0  0  0  0  0  0  0
   -1.5434   -0.8044    0.0000 Cl  0  0  0  0  0  0  0  0  0
  1  2  1  0  0  0  0
  2  3  4  0  0  0  0
  2 29  4  0  0  0  0
  3  4  1  0  0  0  0
  3 26  4  0  0  0  0
  4  5  1  0  0  0  0
  4  9  1  0  0  0  0
  5  6  1  0  0  0  0
  6  7  1  0  0  0  0
  7  8  1  0  0  0  0
  7 10  1  0  0  0  0
  8  9  1  0  0  0  0
 10 11  1  0  0  0  0
 11 12  1  0  0  0  0
 12 13  1  0  0  0  0
 13 14  1  0  0  0  0
 14 15  1  0  0  0  0
 15 16  2  0  0  0  0
 15 17  1  0  0  0  0
 17 18  4  0  0  0  0
 17 21  4  0  0  0  0
 18 19  4  0  0  0  0
 19 20  4  0  0  0  0
 19 25  4  0  0  0  0
 20 21  4  0  0  0  0
 20 22  4  0  0  0  0
 22 23  4  0  0  0  0
 23 24  4  0  0  0  0
 24 25  4  0  0  0  0
 26 27  4  0  0  0  0
 27 28  4  0  0  0  0
 28 29  4  0  0  0  0
 29 30  1  0  0  0  0
M  END
>  <Name_Molregno>
96693

>  <DOPAMINE D2>
6.08

>  <DOPAMINE D3>
9.15

>  <DOPAMINE D4>
6.28

$$$$
96947
  Marvin  02231216192D 0   1.00000     0.00000     0

 23 26  0  0  1  0  0  0  0  0999 V2000
    3.9671    1.6854    0.0000 Cl  0  0  0  0  0  0  0  0  0
    3.1788    1.4422    0.0000 C   0  0  0  0  0  0  0  0  0
    2.5740    2.0033    0.0000 C   0  0  0  0  0  0  0  0  0
    1.7856    1.7602    0.0000 C   0  0  0  0  0  0  0  0  0
    1.6021    0.9558    0.0000 C   0  0  0  0  0  0  0  0  0
    0.8588    0.5979    0.0000 S   0  0  0  0  0  0  0  0  0
    0.1155    0.9558    0.0000 C   0  0  0  0  0  0  0  0  0
   -0.0681    1.7602    0.0000 C   0  0  0  0  0  0  0  0  0
    0.4463    2.4052    0.0000 C   0  0  0  0  0  0  0  0  0
    1.2713    2.4052    0.0000 C   0  0  0  0  0  0  0  0  0
    1.6292    3.1485    0.0000 N   0  0  0  0  0  0  0  0  0
    1.1645    3.8301    0.0000 C   0  0  0  0  0  0  0  0  0
    1.5224    4.5734    0.0000 C   0  0  0  0  0  0  0  0  0
    2.3451    4.6351    0.0000 N   0  0  0  0  0  0  0  0  0
    2.8099    3.9534    0.0000 C   0  0  0  0  0  0  0  0  0
    2.4519    3.2101    0.0000 C   0  0  0  0  0  0  0  0  0
    2.7031    5.3784    0.0000 C   0  0  0  0  0  0  0  0  0
   -0.8565    2.0033    0.0000 C   0  0  0  0  0  0  0  0  0
   -1.4612    1.4422    0.0000 C   0  0  0  0  0  0  0  0  0
   -1.2776    0.6379    0.0000 C   0  0  0  0  0  0  0  0  0
   -0.4893    0.3947    0.0000 C   0  0  0  0  0  0  0  0  0
    2.2068    0.3947    0.0000 C   0  0  0  0  0  0  0  0  0
    2.9952    0.6379    0.0000 C   0  0  0  0  0  0  0  0  0
  1  2  1  0  0  0  0
  2  3  4  0  0  0  0
  2 23  4  0  0  0  0
  3  4  4  0  0  0  0
  4  5  4  0  0  0  0
  4 10  1  0  0  0  0
  5  6  1  0  0  0  0
  5 22  4  0  0  0  0
  6  7  1  0  0  0  0
  7  8  4  0  0  0  0
  7 21  4  0  0  0  0
  8  9  1  0  0  0  0
  8 18  4  0  0  0  0
  9 10  1  0  0  0  0
 10 11  1  0  0  0  0
 11 12  1  0  0  0  0
 11 16  1  0  0  0  0
 12 13  1  0  0  0  0
 13 14  1  0  0  0  0
 14 15  1  0  0  0  0
 14 17  1  0  0  0  0
 15 16  1  0  0  0  0
 18 19  4  0  0  0  0
 19 20  4  0  0  0  0
 20 21  4  0  0  0  0
 22 23  4  0  0  0  0
M  END
>  <Name_Molregno>
96947

>  <5-HT6>
8.21

>  <DOPAMINE D2>
9.42

>  <DOPAMINE D3>
9.38

>  <DOPAMINE D4>
9.4

$$$$
100867
  Marvin  02231216192D 0   1.00000     0.00000     0

 22 25  0  0  0  0  0  0  0  0999 V2000
    0.1405   -0.4939    0.0000 N   0  0  0  0  0  0  0  0  0
    0.3912   -1.2799    0.0000 C   0  0  0  0  0  0  0  0  0
    1.1431   -1.6195    0.0000 C   0  0  0  0  0  0  0  0  0
    1.8131   -1.1381    0.0000 C   0  0  0  0  0  0  0  0  0
    2.5650   -1.4777    0.0000 C   0  0  0  0  0  0  0  0  0
    2.6469   -2.2986    0.0000 C   0  0  0  0  0  0  0  0  0
    1.9769   -2.7800    0.0000 C   0  0  0  0  0  0  0  0  0
    1.2250   -2.4404    0.0000 N   0  0  0  0  0  0  0  0  0
    0.5550   -2.9218    0.0000 C   0  0  0  0  0  0  0  0  0
   -0.1969   -2.5822    0.0000 C   0  0  0  0  0  0  0  0  0
   -0.2788   -1.7613    0.0000 C   0  0  0  0  0  0  0  0  0
   -0.9436   -1.2728    0.0000 C   0  0  0  0  0  0  0  0  0
   -0.6845   -0.4895    0.0000 C   0  0  0  0  0  0  0  0  0
   -1.2333    0.1265    0.0000 C   0  0  0  0  0  0  0  0  0
   -2.0411   -0.0407    0.0000 C   0  0  0  0  0  0  0  0  0
   -2.3002   -0.8240    0.0000 C   0  0  0  0  0  0  0  0  0
   -1.7515   -1.4400    0.0000 C   0  0  0  0  0  0  0  0  0
    0.6762   -1.8244    0.0000 C   0  0  0  0  0  0  0  0  0
    3.2350   -0.9963    0.0000 C   0  0  0  0  0  0  0  0  0
    3.1532   -0.1754    0.0000 C   0  0  0  0  0  0  0  0  0
    2.4013    0.1642    0.0000 C   0  0  0  0  0  0  0  0  0
    1.7313   -0.3172    0.0000 C   0  0  0  0  0  0  0  0  0
  1  2  4  0  0  0  0
  1 13  4  0  0  0  0
  2  3  1  0  0  0  0
  2 11  4  0  0  0  0
  3  4  1  0  0  0  0
  4  5  4  0  0  0  0
  4 22  4  0  0  0  0
  5  6  1  0  0  0  0
  5 19  4  0  0  0  0
  6  7  1  0  0  0  0
  7  8  1  0  0  0  0
  8  9  1  0  0  0  0
  8 18  1  0  0  0  0
  9 10  1  0  0  0  0
 10 11  1  0  0  0  0
 11 12  4  0  0  0  0
 12 13  4  0  0  0  0
 12 17  4  0  0  0  0
 13 14  4  0  0  0  0
 14 15  4  0  0  0  0
 15 16  4  0  0  0  0
 16 17  4  0  0  0  0
 19 20  4  0  0  0  0
 20 21  4  0  0  0  0
 21 22  4  0  0  0  0
M  STY  1   1 DAT
M  SAL   1  1   1
M  SDT   1 MRV_IMPLICIT_H                                        
M  SDD   1     0.0000    0.0000    DR    ALL  0       0  
M  SED   1 IMPL_H1
M  END
>  <Name_Molregno>
100867

>  <DOPAMINE D1>
8.22

>  <DOPAMINE D2>
7.48

>  <DOPAMINE D3>
7.49

>  <DOPAMINE D4>
6.97

>  <DOPAMINE D5>
8.03

$$$$
104152
  Marvin  02231216192D 0   1.00000     0.00000     0

 28 31  0  0  1  0  0  0  0  0999 V2000
    8.9102    2.0180    0.0000 Cl  0  0  0  0  0  0  0  0  0
    8.4977    1.3035    0.0000 C   0  0  0  0  0  0  0  0  0
    8.9102    0.5890    0.0000 C   0  0  0  0  0  0  0  0  0
    8.4977   -0.1254    0.0000 C   0  0  0  0  0  0  0  0  0
    7.6727   -0.1254    0.0000 C   0  0  0  0  0  0  0  0  0
    7.2602    0.5890    0.0000 C   0  0  0  0  0  0  0  0  0
    7.6727    1.3035    0.0000 C   0  0  0  0  0  0  0  0  0
    7.2602   -0.8399    0.0000 C   0  0  0  0  0  0  0  0  0
    6.4352   -0.8399    0.0000 N   0  0  0  0  0  0  0  0  0
    6.0227   -1.5544    0.0000 C   0  0  0  0  0  0  0  0  0
    5.1977   -1.5544    0.0000 C   0  0  0  0  0  0  0  0  0
    4.7852   -0.8399    0.0000 N   0  0  0  0  0  0  0  0  0
    5.1977   -0.1254    0.0000 C   0  0  0  0  0  0  0  0  0
    6.0227   -0.1254    0.0000 C   0  0  0  0  0  0  0  0  0
    3.9602   -0.8399    0.0000 C   0  0  0  0  0  0  0  0  0
    3.6023   -1.5832    0.0000 C   0  0  0  0  0  0  0  0  0
    2.7980   -1.7668    0.0000 C   0  0  0  0  0  0  0  0  0
    2.1530   -1.2524    0.0000 C   0  0  0  0  0  0  0  0  0
    2.1530   -0.4274    0.0000 C   0  0  0  0  0  0  0  0  0
    2.7980    0.0870    0.0000 N   0  0  0  0  0  0  0  0  0
    2.6144    0.8913    0.0000 C   0  0  0  0  0  0  0  0  0
    3.2192    1.4524    0.0000 C   0  0  0  0  0  0  0  0  0
    3.6023   -0.0966    0.0000 C   0  0  0  0  0  0  0  0  0
    4.1167    0.5484    0.0000 O   0  0  0  0  0  0  0  0  0
    1.4385   -0.0149    0.0000 C   0  0  0  0  0  0  0  0  0
    0.7240   -0.4274    0.0000 C   0  0  0  0  0  0  0  0  0
    0.7240   -1.2524    0.0000 C   0  0  0  0  0  0  0  0  0
    1.4385   -1.6649    0.0000 C   0  0  0  0  0  0  0  0  0
  1  2  1  0  0  0  0
  2  3  4  0  0  0  0
  2  7  4  0  0  0  0
  3  4  4  0  0  0  0
  4  5  4  0  0  0  0
  5  6  4  0  0  0  0
  5  8  1  0  0  0  0
  6  7  4  0  0  0  0
  8  9  1  0  0  0  0
  9 10  1  0  0  0  0
  9 14  1  0  0  0  0
 10 11  1  0  0  0  0
 11 12  1  0  0  0  0
 12 13  1  0  0  0  0
 12 15  1  0  0  0  0
 13 14  1  0  0  0  0
 15 16  1  0  0  0  0
 15 23  1  0  0  0  0
 16 17  1  0  0  0  0
 17 18  1  0  0  0  0
 18 19  4  0  0  0  0
 18 28  4  0  0  0  0
 19 20  1  0  0  0  0
 19 25  4  0  0  0  0
 20 21  1  0  0  0  0
 20 23  1  0  0  0  0
 21 22  1  0  0  0  0
 23 24  2  0  0  0  0
 25 26  4  0  0  0  0
 26 27  4  0  0  0  0
 27 28  4  0  0  0  0
M  END
>  <Name_Molregno>
104152

>  <DOPAMINE D4>
5.82

$$$$
105238
  Marvin  02231216192D 0   1.00000     0.00000     0

 27 30  0  0  1  0  0  0  0  0999 V2000
    2.3644   -4.3256    0.0000 Cl  0  0  0  0  0  0  0  0  0
    2.3644   -3.5006    0.0000 C   0  0  0  0  0  0  0  0  0
    1.6499   -3.0881    0.0000 C   0  0  0  0  0  0  0  0  0
    1.6499   -2.2631    0.0000 C   0  0  0  0  0  0  0  0  0
    2.3644   -1.8506    0.0000 C   0  0  0  0  0  0  0  0  0
    3.0789   -2.2631    0.0000 C   0  0  0  0  0  0  0  0  0
    3.0789   -3.0881    0.0000 C   0  0  0  0  0  0  0  0  0
    2.3644   -1.0256    0.0000 C   0  0  0  0  0  0  0  0  0
    3.0789   -0.6131    0.0000 N   0  0  0  0  0  0  0  0  0
    3.0789    0.2119    0.0000 C   0  0  0  0  0  0  0  0  0
    3.7933    0.6244    0.0000 C   0  0  0  0  0  0  0  0  0
    4.5078    0.2119    0.0000 N   0  0  0  0  0  0  0  0  0
    4.5078   -0.6131    0.0000 C   0  0  0  0  0  0  0  0  0
    3.7933   -1.0256    0.0000 C   0  0  0  0  0  0  0  0  0
    5.2223    0.6244    0.0000 C   0  0  0  0  0  0  0  0  0
    5.9367    0.2119    0.0000 C   0  0  0  0  0  0  0  0  0
    6.6512    0.6244    0.0000 C   0  0  0  0  0  0  0  0  0
    6.6512    1.4494    0.0000 C   0  0  0  0  0  0  0  0  0
    5.9367    1.8619    0.0000 N   0  0  0  0  0  0  0  0  0
    5.9367    2.6869    0.0000 C   0  0  0  0  0  0  0  0  0
    5.2223    3.0994    0.0000 C   0  0  0  0  0  0  0  0  0
    5.2223    1.4494    0.0000 C   0  0  0  0  0  0  0  0  0
    4.5078    1.8619    0.0000 O   0  0  0  0  0  0  0  0  0
    7.3657    1.8619    0.0000 C   0  0  0  0  0  0  0  0  0
    8.0802    1.4494    0.0000 C   0  0  0  0  0  0  0  0  0
    8.0802    0.6244    0.0000 C   0  0  0  0  0  0  0  0  0
    7.3657    0.2119    0.0000 C   0  0  0  0  0  0  0  0  0
  1  2  1  0  0  0  0
  2  3  4  0  0  0  0
  2  7  4  0  0  0  0
  3  4  4  0  0  0  0
  4  5  4  0  0  0  0
  5  6  4  0  0  0  0
  5  8  1  0  0  0  0
  6  7  4  0  0  0  0
  8  9  1  0  0  0  0
  9 10  1  0  0  0  0
  9 14  1  0  0  0  0
 10 11  1  0  0  0  0
 11 12  1  0  0  0  0
 12 13  1  0  0  0  0
 12 15  1  0  0  0  0
 13 14  1  0  0  0  0
 15 16  1  0  0  0  0
 15 22  1  0  0  0  0
 16 17  1  0  0  0  0
 17 18  4  0  0  0  0
 17 27  4  0  0  0  0
 18 19  1  0  0  0  0
 18 24  4  0  0  0  0
 19 20  1  0  0  0  0
 19 22  1  0  0  0  0
 20 21  1  0  0  0  0
 22 23  2  0  0  0  0
 24 25  4  0  0  0  0
 25 26  4  0  0  0  0
 26 27  4  0  0  0  0
M  END
>  <Name_Molregno>
105238

>  <DOPAMINE D4>
8.4

$$$$
105414
  Marvin  02231216192D 0   1.00000     0.00000     0

 26 29  0  0  0  0  0  0  0  0999 V2000
    0.7821    3.5204    0.0000 Cl  0  0  0  0  0  0  0  0  0
    1.5891    3.3489    0.0000 C   0  0  0  0  0  0  0  0  0
    2.1411    3.9620    0.0000 C   0  0  0  0  0  0  0  0  0
    2.9481    3.7905    0.0000 C   0  0  0  0  0  0  0  0  0
    3.2030    3.0058    0.0000 C   0  0  0  0  0  0  0  0  0
    2.6510    2.3928    0.0000 C   0  0  0  0  0  0  0  0  0
    1.8440    2.5643    0.0000 C   0  0  0  0  0  0  0  0  0
    4.0100    2.8343    0.0000 C   0  0  0  0  0  0  0  0  0
    4.2649    2.0497    0.0000 N   0  0  0  0  0  0  0  0  0
    5.0719    1.8782    0.0000 C   0  0  0  0  0  0  0  0  0
    5.3268    1.0935    0.0000 C   0  0  0  0  0  0  0  0  0
    4.7748    0.4805    0.0000 N   0  0  0  0  0  0  0  0  0
    3.9678    0.6520    0.0000 C   0  0  0  0  0  0  0  0  0
    3.7129    1.4366    0.0000 C   0  0  0  0  0  0  0  0  0
    5.0297   -0.3042    0.0000 C   0  0  0  0  0  0  0  0  0
    5.8367   -0.4757    0.0000 C   0  0  0  0  0  0  0  0  0
    6.3887    0.1374    0.0000 O   0  0  0  0  0  0  0  0  0
    6.0916   -1.2603    0.0000 N   0  0  0  0  0  0  0  0  0
    5.6067   -1.9278    0.0000 C   0  0  0  0  0  0  0  0  0
    6.0916   -2.5952    0.0000 C   0  0  0  0  0  0  0  0  0
    6.8763   -2.3403    0.0000 C   0  0  0  0  0  0  0  0  0
    6.8763   -1.5153    0.0000 C   0  0  0  0  0  0  0  0  0
    7.5907   -1.1028    0.0000 C   0  0  0  0  0  0  0  0  0
    8.3052   -1.5153    0.0000 C   0  0  0  0  0  0  0  0  0
    8.3052   -2.3403    0.0000 C   0  0  0  0  0  0  0  0  0
    7.5907   -2.7528    0.0000 C   0  0  0  0  0  0  0  0  0
  1  2  1  0  0  0  0
  2  3  4  0  0  0  0
  2  7  4  0  0  0  0
  3  4  4  0  0  0  0
  4  5  4  0  0  0  0
  5  6  4  0  0  0  0
  5  8  1  0  0  0  0
  6  7  4  0  0  0  0
  8  9  1  0  0  0  0
  9 10  1  0  0  0  0
  9 14  1  0  0  0  0
 10 11  1  0  0  0  0
 11 12  1  0  0  0  0
 12 13  1  0  0  0  0
 12 15  1  0  0  0  0
 13 14  1  0  0  0  0
 15 16  1  0  0  0  0
 16 17  2  0  0  0  0
 16 18  1  0  0  0  0
 18 19  1  0  0  0  0
 18 22  1  0  0  0  0
 19 20  1  0  0  0  0
 20 21  1  0  0  0  0
 21 22  4  0  0  0  0
 21 26  4  0  0  0  0
 22 23  4  0  0  0  0
 23 24  4  0  0  0  0
 24 25  4  0  0  0  0
 25 26  4  0  0  0  0
M  END
>  <Name_Molregno>
105414

>  <DOPAMINE D4>
8.8

$$$$
109514
  Marvin  02231216192D 0   1.00000     0.00000     0

 18 20  0  0  1  0  0  0  0  0999 V2000
    0.9583   -2.1118    0.0000 O   0  0  0  0  0  0  0  0  0
    0.5458   -1.3973    0.0000 C   0  0  0  0  0  0  0  0  0
    0.9583   -0.6829    0.0000 C   0  0  0  0  0  0  0  0  0
    1.7833   -0.6829    0.0000 N   0  0  0  0  0  0  0  0  0
    2.1958   -1.3973    0.0000 C   0  0  0  0  0  0  0  0  0
    1.7833   -2.1118    0.0000 C   0  0  0  0  0  0  0  0  0
    2.1958    0.0316    0.0000 C   0  0  0  0  0  0  0  0  0
    3.0208    0.0316    0.0000 C   0  0  0  0  0  0  0  0  0
    3.4333    0.7461    0.0000 C   0  0  0  0  0  0  0  0  0
    0.5458    0.0316    0.0000 C   0  0  0  0  0  0  0  0  0
   -0.2792    0.0316    0.0000 C   0  0  0  0  0  0  0  0  0
   -0.6917   -0.6829    0.0000 C   0  0  0  0  0  0  0  0  0
   -0.2792   -1.3973    0.0000 C   0  0  0  0  0  0  0  0  0
   -0.6917   -2.1118    0.0000 C   0  0  0  0  0  0  0  0  0
   -1.5167   -2.1118    0.0000 C   0  0  0  0  0  0  0  0  0
   -1.9292   -2.8263    0.0000 O   0  0  0  0  0  0  0  0  0
   -1.9292   -1.3973    0.0000 C   0  0  0  0  0  0  0  0  0
   -1.5167   -0.6829    0.0000 C   0  0  0  0  0  0  0  0  0
  1  2  1  0  0  0  0
  1  6  1  0  0  0  0
  2  3  1  0  0  0  0
  2 13  1  0  0  0  0
  3  4  1  0  0  0  0
  3 10  1  0  0  0  0
  4  5  1  0  0  0  0
  4  7  1  0  0  0  0
  5  6  1  0  0  0  0
  7  8  1  0  0  0  0
  8  9  1  0  0  0  0
 10 11  1  0  0  0  0
 11 12  1  0  0  0  0
 12 13  4  0  0  0  0
 12 18  4  0  0  0  0
 13 14  4  0  0  0  0
 14 15  4  0  0  0  0
 15 16  1  0  0  0  0
 15 17  4  0  0  0  0
 17 18  4  0  0  0  0
M  END
>  <Name_Molregno>
109514

>  <DOPAMINE D2>
6.97

>  <DOPAMINE D3>
9.74

>  <DOPAMINE D4>
6.15

$$$$
110193
  Marvin  02231216192D 0   1.00000     0.00000     0

 34 38  0  0  0  0  0  0  0  0999 V2000
    7.9156   -3.6933    0.0000 Cl  0  0  0  0  0  0  0  0  0
    8.1705   -2.9087    0.0000 C   0  0  0  0  0  0  0  0  0
    7.6185   -2.2956    0.0000 C   0  0  0  0  0  0  0  0  0
    6.8115   -2.4671    0.0000 N   0  0  0  0  0  0  0  0  0
    6.5566   -3.2518    0.0000 C   0  0  0  0  0  0  0  0  0
    5.7496   -3.4233    0.0000 C   0  0  0  0  0  0  0  0  0
    5.1976   -2.8102    0.0000 N   0  0  0  0  0  0  0  0  0
    5.4525   -2.0256    0.0000 C   0  0  0  0  0  0  0  0  0
    6.2595   -1.8540    0.0000 C   0  0  0  0  0  0  0  0  0
    4.3906   -2.9817    0.0000 C   0  0  0  0  0  0  0  0  0
    3.8386   -2.3686    0.0000 C   0  0  0  0  0  0  0  0  0
    4.0935   -1.5840    0.0000 C   0  0  0  0  0  0  0  0  0
    3.5415   -0.9709    0.0000 C   0  0  0  0  0  0  0  0  0
    3.7964   -0.1863    0.0000 N   0  0  0  0  0  0  0  0  0
    3.2444    0.4268    0.0000 C   0  0  0  0  0  0  0  0  0
    2.4374    0.2553    0.0000 O   0  0  0  0  0  0  0  0  0
    3.4993    1.2114    0.0000 C   0  0  0  0  0  0  0  0  0
    2.9473    1.8245    0.0000 C   0  0  0  0  0  0  0  0  0
    3.2022    2.6091    0.0000 C   0  0  0  0  0  0  0  0  0
    2.5348    3.0941    0.0000 C   0  0  0  0  0  0  0  0  0
    1.8674    2.6091    0.0000 C   0  0  0  0  0  0  0  0  0
    2.1223    1.8245    0.0000 C   0  0  0  0  0  0  0  0  0
    1.5703    1.2114    0.0000 C   0  0  0  0  0  0  0  0  0
    0.7633    1.3830    0.0000 C   0  0  0  0  0  0  0  0  0
    0.5084    2.1676    0.0000 C   0  0  0  0  0  0  0  0  0
    1.0604    2.7807    0.0000 C   0  0  0  0  0  0  0  0  0
    4.0092    2.7807    0.0000 C   0  0  0  0  0  0  0  0  0
    4.5612    2.1676    0.0000 C   0  0  0  0  0  0  0  0  0
    4.3063    1.3830    0.0000 C   0  0  0  0  0  0  0  0  0
    7.8734   -1.5110    0.0000 C   0  0  0  0  0  0  0  0  0
    8.6804   -1.3395    0.0000 C   0  0  0  0  0  0  0  0  0
    9.2325   -1.9526    0.0000 C   0  0  0  0  0  0  0  0  0
    8.9775   -2.7372    0.0000 C   0  0  0  0  0  0  0  0  0
    9.5295   -3.3503    0.0000 Cl  0  0  0  0  0  0  0  0  0
  1  2  1  0  0  0  0
  2  3  4  0  0  0  0
  2 33  4  0  0  0  0
  3  4  1  0  0  0  0
  3 30  4  0  0  0  0
  4  5  1  0  0  0  0
  4  9  1  0  0  0  0
  5  6  1  0  0  0  0
  6  7  1  0  0  0  0
  7  8  1  0  0  0  0
  7 10  1  0  0  0  0
  8  9  1  0  0  0  0
 10 11  1  0  0  0  0
 11 12  2  0  0  0  0
 12 13  1  0  0  0  0
 13 14  1  0  0  0  0
 14 15  1  0  0  0  0
 15 16  2  0  0  0  0
 15 17  1  0  0  0  0
 17 18  4  0  0  0  0
 17 29  4  0  0  0  0
 18 19  4  0  0  0  0
 18 22  1  0  0  0  0
 19 20  1  0  0  0  0
 19 27  4  0  0  0  0
 20 21  1  0  0  0  0
 21 22  4  0  0  0  0
 21 26  4  0  0  0  0
 22 23  4  0  0  0  0
 23 24  4  0  0  0  0
 24 25  4  0  0  0  0
 25 26  4  0  0  0  0
 27 28  4  0  0  0  0
 28 29  4  0  0  0  0
 30 31  4  0  0  0  0
 31 32  4  0  0  0  0
 32 33  4  0  0  0  0
 33 34  1  0  0  0  0
M  END
>  <Name_Molregno>
110193

>  <DOPAMINE D2>
6.1

>  <DOPAMINE D3>
7.64

>  <DOPAMINE D4>
6.44

$$$$
110358
  Marvin  02231216192D 0   1.00000     0.00000     0

 34 38  0  0  0  0  0  0  0  0999 V2000
    3.1957   -3.8270    0.0000 Cl  0  0  0  0  0  0  0  0  0
    4.0027   -3.6555    0.0000 C   0  0  0  0  0  0  0  0  0
    4.2577   -2.8709    0.0000 C   0  0  0  0  0  0  0  0  0
    3.7056   -2.2578    0.0000 N   0  0  0  0  0  0  0  0  0
    2.8986   -2.4293    0.0000 C   0  0  0  0  0  0  0  0  0
    2.3466   -1.8162    0.0000 C   0  0  0  0  0  0  0  0  0
    2.6016   -1.0316    0.0000 N   0  0  0  0  0  0  0  0  0
    3.4085   -0.8601    0.0000 C   0  0  0  0  0  0  0  0  0
    3.9606   -1.4732    0.0000 C   0  0  0  0  0  0  0  0  0
    2.0495   -0.4185    0.0000 C   0  0  0  0  0  0  0  0  0
    2.3045    0.3661    0.0000 C   0  0  0  0  0  0  0  0  0
    3.1114    0.5377    0.0000 C   0  0  0  0  0  0  0  0  0
    3.3664    1.3223    0.0000 C   0  0  0  0  0  0  0  0  0
    4.1733    1.4938    0.0000 N   0  0  0  0  0  0  0  0  0
    4.4283    2.2784    0.0000 C   0  0  0  0  0  0  0  0  0
    3.8763    2.8915    0.0000 O   0  0  0  0  0  0  0  0  0
    5.2353    2.4500    0.0000 C   0  0  0  0  0  0  0  0  0
    5.7873    1.8369    0.0000 C   0  0  0  0  0  0  0  0  0
    6.5943    2.0084    0.0000 C   0  0  0  0  0  0  0  0  0
    7.2617    1.5235    0.0000 C   0  0  0  0  0  0  0  0  0
    7.9291    2.0084    0.0000 C   0  0  0  0  0  0  0  0  0
    7.6742    2.7930    0.0000 C   0  0  0  0  0  0  0  0  0
    6.8492    2.7930    0.0000 C   0  0  0  0  0  0  0  0  0
    6.2972    3.4061    0.0000 C   0  0  0  0  0  0  0  0  0
    5.4902    3.2346    0.0000 C   0  0  0  0  0  0  0  0  0
    8.2262    3.4061    0.0000 C   0  0  0  0  0  0  0  0  0
    9.0332    3.2346    0.0000 C   0  0  0  0  0  0  0  0  0
    9.2881    2.4500    0.0000 C   0  0  0  0  0  0  0  0  0
    8.7361    1.8369    0.0000 C   0  0  0  0  0  0  0  0  0
    5.0646   -2.6993    0.0000 C   0  0  0  0  0  0  0  0  0
    5.6167   -3.3124    0.0000 C   0  0  0  0  0  0  0  0  0
    5.3617   -4.0971    0.0000 C   0  0  0  0  0  0  0  0  0
    4.5547   -4.2686    0.0000 C   0  0  0  0  0  0  0  0  0
    4.2998   -5.0532    0.0000 Cl  0  0  0  0  0  0  0  0  0
  1  2  1  0  0  0  0
  2  3  4  0  0  0  0
  2 33  4  0  0  0  0
  3  4  1  0  0  0  0
  3 30  4  0  0  0  0
  4  5  1  0  0  0  0
  4  9  1  0  0  0  0
  5  6  1  0  0  0  0
  6  7  1  0  0  0  0
  7  8  1  0  0  0  0
  7 10  1  0  0  0  0
  8  9  1  0  0  0  0
 10 11  1  0  0  0  0
 11 12  2  0  0  0  0
 12 13  1  0  0  0  0
 13 14  1  0  0  0  0
 14 15  1  0  0  0  0
 15 16  2  0  0  0  0
 15 17  1  0  0  0  0
 17 18  4  0  0  0  0
 17 25  4  0  0  0  0
 18 19  4  0  0  0  0
 19 20  1  0  0  0  0
 19 23  4  0  0  0  0
 20 21  1  0  0  0  0
 21 22  4  0  0  0  0
 21 29  4  0  0  0  0
 22 23  1  0  0  0  0
 22 26  4  0  0  0  0
 23 24  4  0  0  0  0
 24 25  4  0  0  0  0
 26 27  4  0  0  0  0
 27 28  4  0  0  0  0
 28 29  4  0  0  0  0
 30 31  4  0  0  0  0
 31 32  4  0  0  0  0
 32 33  4  0  0  0  0
 33 34  1  0  0  0  0
M  END
>  <Name_Molregno>
110358

>  <5-HT1A>
6.03

>  <5-HT2A>
6.48

>  <5-HT2C>
6.88

>  <DOPAMINE D2>
6.33

>  <DOPAMINE D3>
8.69

>  <DOPAMINE D4>
5.99

$$$$
111616
  Marvin  02231216192D 0   1.00000     0.00000     0

 22 25  0  0  0  0  0  0  0  0999 V2000
   -0.1703   -0.4720    0.0000 N   0  0  0  0  0  0  0  0  0
    0.6143   -0.2171    0.0000 C   0  0  0  0  0  0  0  0  0
    0.6143    0.6079    0.0000 C   0  0  0  0  0  0  0  0  0
   -0.1703    0.8629    0.0000 N   0  0  0  0  0  0  0  0  0
   -0.6552    0.1954    0.0000 C   0  0  0  0  0  0  0  0  0
   -1.4802    0.1954    0.0000 C   0  0  0  0  0  0  0  0  0
   -1.8927   -0.5190    0.0000 C   0  0  0  0  0  0  0  0  0
   -2.7177   -0.5190    0.0000 C   0  0  0  0  0  0  0  0  0
   -3.1302    0.1954    0.0000 N   0  0  0  0  0  0  0  0  0
   -2.7177    0.9099    0.0000 C   0  0  0  0  0  0  0  0  0
   -1.8927    0.9099    0.0000 C   0  0  0  0  0  0  0  0  0
   -3.9552    0.1954    0.0000 C   0  0  0  0  0  0  0  0  0
   -4.3677    0.9099    0.0000 C   0  0  0  0  0  0  0  0  0
   -5.1927    0.9099    0.0000 C   0  0  0  0  0  0  0  0  0
   -5.6052    1.6244    0.0000 C   0  0  0  0  0  0  0  0  0
   -5.1927    2.3388    0.0000 C   0  0  0  0  0  0  0  0  0
   -4.3677    2.3388    0.0000 C   0  0  0  0  0  0  0  0  0
   -3.9552    1.6244    0.0000 C   0  0  0  0  0  0  0  0  0
    1.3288    1.0204    0.0000 C   0  0  0  0  0  0  0  0  0
    2.0433    0.6079    0.0000 C   0  0  0  0  0  0  0  0  0
    2.0433   -0.2171    0.0000 C   0  0  0  0  0  0  0  0  0
    1.3288   -0.6296    0.0000 C   0  0  0  0  0  0  0  0  0
  1  2  4  0  0  0  0
  1  5  4  0  0  0  0
  2  3  4  0  0  0  0
  2 22  4  0  0  0  0
  3  4  4  0  0  0  0
  3 19  4  0  0  0  0
  4  5  4  0  0  0  0
  5  6  1  0  0  0  0
  6  7  1  0  0  0  0
  6 11  2  0  0  0  0
  7  8  1  0  0  0  0
  8  9  1  0  0  0  0
  9 10  1  0  0  0  0
  9 12  1  0  0  0  0
 10 11  1  0  0  0  0
 12 13  1  0  0  0  0
 13 14  4  0  0  0  0
 13 18  4  0  0  0  0
 14 15  4  0  0  0  0
 15 16  4  0  0  0  0
 16 17  4  0  0  0  0
 17 18  4  0  0  0  0
 19 20  4  0  0  0  0
 20 21  4  0  0  0  0
 21 22  4  0  0  0  0
M  STY  1   1 DAT
M  SAL   1  1   1
M  SDT   1 MRV_IMPLICIT_H                                        
M  SDD   1     0.0000    0.0000    DR    ALL  0       0  
M  SED   1 IMPL_H1
M  END
>  <Name_Molregno>
111616

>  <DOPAMINE D2>
5.85

>  <DOPAMINE D3>
5.36

>  <DOPAMINE D4>
7.03

$$$$
111652
  Marvin  02231216192D 0   1.00000     0.00000     0

 24 27  0  0  0  0  0  0  0  0999 V2000
   -8.2573   -2.5981    0.0000 Cl  0  0  0  0  0  0  0  0  0
   -7.8448   -1.8836    0.0000 C   0  0  0  0  0  0  0  0  0
   -8.2573   -1.1691    0.0000 C   0  0  0  0  0  0  0  0  0
   -7.8448   -0.4547    0.0000 C   0  0  0  0  0  0  0  0  0
   -7.0198   -0.4547    0.0000 C   0  0  0  0  0  0  0  0  0
   -6.6073   -1.1691    0.0000 C   0  0  0  0  0  0  0  0  0
   -7.0198   -1.8836    0.0000 C   0  0  0  0  0  0  0  0  0
   -6.6073    0.2598    0.0000 C   0  0  0  0  0  0  0  0  0
   -5.7823    0.2598    0.0000 N   0  0  0  0  0  0  0  0  0
   -5.3698    0.9743    0.0000 C   0  0  0  0  0  0  0  0  0
   -4.5448    0.9743    0.0000 C   0  0  0  0  0  0  0  0  0
   -4.1323    0.2598    0.0000 C   0  0  0  0  0  0  0  0  0
   -4.5448   -0.4547    0.0000 C   0  0  0  0  0  0  0  0  0
   -5.3698   -0.4547    0.0000 C   0  0  0  0  0  0  0  0  0
   -3.3073    0.2598    0.0000 C   0  0  0  0  0  0  0  0  0
   -2.8223   -0.4076    0.0000 O   0  0  0  0  0  0  0  0  0
   -2.0377   -0.1527    0.0000 C   0  0  0  0  0  0  0  0  0
   -2.0377    0.6723    0.0000 C   0  0  0  0  0  0  0  0  0
   -2.8223    0.9272    0.0000 N   0  0  0  0  0  0  0  0  0
   -1.3232    1.0848    0.0000 C   0  0  0  0  0  0  0  0  0
   -0.6088    0.6723    0.0000 C   0  0  0  0  0  0  0  0  0
    0.1057    1.0848    0.0000 Cl  0  0  0  0  0  0  0  0  0
   -0.6088   -0.1527    0.0000 C   0  0  0  0  0  0  0  0  0
   -1.3232   -0.5652    0.0000 C   0  0  0  0  0  0  0  0  0
  1  2  1  0  0  0  0
  2  3  4  0  0  0  0
  2  7  4  0  0  0  0
  3  4  4  0  0  0  0
  4  5  4  0  0  0  0
  5  6  4  0  0  0  0
  5  8  1  0  0  0  0
  6  7  4  0  0  0  0
  8  9  1  0  0  0  0
  9 10  1  0  0  0  0
  9 14  1  0  0  0  0
 10 11  1  0  0  0  0
 11 12  1  0  0  0  0
 12 13  2  0  0  0  0
 12 15  1  0  0  0  0
 13 14  1  0  0  0  0
 15 16  4  0  0  0  0
 15 19  4  0  0  0  0
 16 17  4  0  0  0  0
 17 18  4  0  0  0  0
 17 24  4  0  0  0  0
 18 19  4  0  0  0  0
 18 20  4  0  0  0  0
 20 21  4  0  0  0  0
 21 22  1  0  0  0  0
 21 23  4  0  0  0  0
 23 24  4  0  0  0  0
M  END
>  <Name_Molregno>
111652

>  <DOPAMINE D2>
5.77

>  <DOPAMINE D3>
5.35

>  <DOPAMINE D4>
8.08

$$$$
111653
  Marvin  02231216192D 0   1.00000     0.00000     0

 23 26  0  0  0  0  0  0  0  0999 V2000
    8.7407   -0.9689    0.0000 Cl  0  0  0  0  0  0  0  0  0
    8.0262   -0.5564    0.0000 C   0  0  0  0  0  0  0  0  0
    7.3117   -0.9689    0.0000 C   0  0  0  0  0  0  0  0  0
    6.5973   -0.5564    0.0000 C   0  0  0  0  0  0  0  0  0
    5.8126   -0.8114    0.0000 N   0  0  0  0  0  0  0  0  0
    5.3277   -0.1439    0.0000 C   0  0  0  0  0  0  0  0  0
    5.8126    0.5235    0.0000 S   0  0  0  0  0  0  0  0  0
    6.5973    0.2686    0.0000 C   0  0  0  0  0  0  0  0  0
    7.3117    0.6811    0.0000 C   0  0  0  0  0  0  0  0  0
    8.0262    0.2686    0.0000 C   0  0  0  0  0  0  0  0  0
    4.5027   -0.1439    0.0000 C   0  0  0  0  0  0  0  0  0
    4.0902   -0.8584    0.0000 C   0  0  0  0  0  0  0  0  0
    3.2652   -0.8584    0.0000 C   0  0  0  0  0  0  0  0  0
    2.8527   -0.1439    0.0000 N   0  0  0  0  0  0  0  0  0
    3.2652    0.5705    0.0000 C   0  0  0  0  0  0  0  0  0
    4.0902    0.5705    0.0000 C   0  0  0  0  0  0  0  0  0
    2.0277   -0.1439    0.0000 C   0  0  0  0  0  0  0  0  0
    1.6152    0.5705    0.0000 C   0  0  0  0  0  0  0  0  0
    0.7902    0.5705    0.0000 C   0  0  0  0  0  0  0  0  0
    0.3777    1.2850    0.0000 C   0  0  0  0  0  0  0  0  0
    0.7902    1.9995    0.0000 C   0  0  0  0  0  0  0  0  0
    1.6152    1.9995    0.0000 C   0  0  0  0  0  0  0  0  0
    2.0277    1.2850    0.0000 C   0  0  0  0  0  0  0  0  0
  1  2  1  0  0  0  0
  2  3  4  0  0  0  0
  2 10  4  0  0  0  0
  3  4  4  0  0  0  0
  4  5  4  0  0  0  0
  4  8  4  0  0  0  0
  5  6  4  0  0  0  0
  6  7  4  0  0  0  0
  6 11  1  0  0  0  0
  7  8  4  0  0  0  0
  8  9  4  0  0  0  0
  9 10  4  0  0  0  0
 11 12  1  0  0  0  0
 11 16  2  0  0  0  0
 12 13  1  0  0  0  0
 13 14  1  0  0  0  0
 14 15  1  0  0  0  0
 14 17  1  0  0  0  0
 15 16  1  0  0  0  0
 17 18  1  0  0  0  0
 18 19  4  0  0  0  0
 18 23  4  0  0  0  0
 19 20  4  0  0  0  0
 20 21  4  0  0  0  0
 21 22  4  0  0  0  0
 22 23  4  0  0  0  0
M  END
>  <Name_Molregno>
111653

>  <DOPAMINE D2>
5.8

>  <DOPAMINE D3>
5.74

>  <DOPAMINE D4>
7.36

$$$$
111968
  Marvin  02231216192D 0   1.00000     0.00000     0

 23 26  0  0  0  0  0  0  0  0999 V2000
   -7.8673   -2.6018    0.0000 Cl  0  0  0  0  0  0  0  0  0
   -7.4548   -1.8873    0.0000 C   0  0  0  0  0  0  0  0  0
   -7.8673   -1.1728    0.0000 C   0  0  0  0  0  0  0  0  0
   -7.4548   -0.4584    0.0000 C   0  0  0  0  0  0  0  0  0
   -6.6298   -0.4584    0.0000 C   0  0  0  0  0  0  0  0  0
   -6.2173   -1.1728    0.0000 C   0  0  0  0  0  0  0  0  0
   -6.6298   -1.8873    0.0000 C   0  0  0  0  0  0  0  0  0
   -6.2173    0.2561    0.0000 C   0  0  0  0  0  0  0  0  0
   -5.3923    0.2561    0.0000 N   0  0  0  0  0  0  0  0  0
   -4.9798    0.9706    0.0000 C   0  0  0  0  0  0  0  0  0
   -4.1548    0.9706    0.0000 C   0  0  0  0  0  0  0  0  0
   -3.7423    0.2561    0.0000 C   0  0  0  0  0  0  0  0  0
   -4.1548   -0.4584    0.0000 C   0  0  0  0  0  0  0  0  0
   -4.9798   -0.4584    0.0000 C   0  0  0  0  0  0  0  0  0
   -2.9173    0.2561    0.0000 C   0  0  0  0  0  0  0  0  0
   -2.4324   -0.4113    0.0000 N   0  0  0  0  0  0  0  0  0
   -1.6477   -0.1564    0.0000 C   0  0  0  0  0  0  0  0  0
   -1.6477    0.6686    0.0000 C   0  0  0  0  0  0  0  0  0
   -2.4324    0.9236    0.0000 N   0  0  0  0  0  0  0  0  0
   -0.9333    1.0811    0.0000 C   0  0  0  0  0  0  0  0  0
   -0.2188    0.6686    0.0000 C   0  0  0  0  0  0  0  0  0
   -0.2188   -0.1564    0.0000 C   0  0  0  0  0  0  0  0  0
   -0.9333   -0.5689    0.0000 C   0  0  0  0  0  0  0  0  0
  1  2  1  0  0  0  0
  2  3  4  0  0  0  0
  2  7  4  0  0  0  0
  3  4  4  0  0  0  0
  4  5  4  0  0  0  0
  5  6  4  0  0  0  0
  5  8  1  0  0  0  0
  6  7  4  0  0  0  0
  8  9  1  0  0  0  0
  9 10  1  0  0  0  0
  9 14  1  0  0  0  0
 10 11  1  0  0  0  0
 11 12  1  0  0  0  0
 12 13  2  0  0  0  0
 12 15  1  0  0  0  0
 13 14  1  0  0  0  0
 15 16  4  0  0  0  0
 15 19  4  0  0  0  0
 16 17  4  0  0  0  0
 17 18  4  0  0  0  0
 17 23  4  0  0  0  0
 18 19  4  0  0  0  0
 18 20  4  0  0  0  0
 20 21  4  0  0  0  0
 21 22  4  0  0  0  0
 22 23  4  0  0  0  0
M  STY  1   1 DAT
M  SAL   1  1  16
M  SDT   1 MRV_IMPLICIT_H                                        
M  SDD   1     0.0000    0.0000    DR    ALL  0       0  
M  SED   1 IMPL_H1
M  END
>  <Name_Molregno>
111968

>  <DOPAMINE D2>
6.17

>  <DOPAMINE D3>
5.8

>  <DOPAMINE D4>
7.17

$$$$
112040
  Marvin  02231216192D 0   1.00000     0.00000     0

 24 27  0  0  0  0  0  0  0  0999 V2000
   -8.2573   -2.5981    0.0000 Cl  0  0  0  0  0  0  0  0  0
   -7.8448   -1.8836    0.0000 C   0  0  0  0  0  0  0  0  0
   -8.2573   -1.1691    0.0000 C   0  0  0  0  0  0  0  0  0
   -7.8448   -0.4547    0.0000 C   0  0  0  0  0  0  0  0  0
   -7.0198   -0.4547    0.0000 C   0  0  0  0  0  0  0  0  0
   -6.6073   -1.1691    0.0000 C   0  0  0  0  0  0  0  0  0
   -7.0198   -1.8836    0.0000 C   0  0  0  0  0  0  0  0  0
   -6.6073    0.2598    0.0000 C   0  0  0  0  0  0  0  0  0
   -5.7823    0.2598    0.0000 N   0  0  0  0  0  0  0  0  0
   -5.3698    0.9743    0.0000 C   0  0  0  0  0  0  0  0  0
   -4.5448    0.9743    0.0000 C   0  0  0  0  0  0  0  0  0
   -4.1323    0.2598    0.0000 C   0  0  0  0  0  0  0  0  0
   -4.5448   -0.4547    0.0000 C   0  0  0  0  0  0  0  0  0
   -5.3698   -0.4547    0.0000 C   0  0  0  0  0  0  0  0  0
   -3.3073    0.2598    0.0000 C   0  0  0  0  0  0  0  0  0
   -2.8223   -0.4076    0.0000 N   0  0  0  0  0  0  0  0  0
   -2.0377   -0.1527    0.0000 C   0  0  0  0  0  0  0  0  0
   -2.0377    0.6723    0.0000 C   0  0  0  0  0  0  0  0  0
   -2.8223    0.9272    0.0000 N   0  0  0  0  0  0  0  0  0
   -1.3232    1.0848    0.0000 C   0  0  0  0  0  0  0  0  0
   -0.6088    0.6723    0.0000 C   0  0  0  0  0  0  0  0  0
    0.1057    1.0848    0.0000 Cl  0  0  0  0  0  0  0  0  0
   -0.6088   -0.1527    0.0000 C   0  0  0  0  0  0  0  0  0
   -1.3232   -0.5652    0.0000 C   0  0  0  0  0  0  0  0  0
  1  2  1  0  0  0  0
  2  3  4  0  0  0  0
  2  7  4  0  0  0  0
  3  4  4  0  0  0  0
  4  5  4  0  0  0  0
  5  6  4  0  0  0  0
  5  8  1  0  0  0  0
  6  7  4  0  0  0  0
  8  9  1  0  0  0  0
  9 10  1  0  0  0  0
  9 14  1  0  0  0  0
 10 11  1  0  0  0  0
 11 12  1  0  0  0  0
 12 13  2  0  0  0  0
 12 15  1  0  0  0  0
 13 14  1  0  0  0  0
 15 16  4  0  0  0  0
 15 19  4  0  0  0  0
 16 17  4  0  0  0  0
 17 18  4  0  0  0  0
 17 24  4  0  0  0  0
 18 19  4  0  0  0  0
 18 20  4  0  0  0  0
 20 21  4  0  0  0  0
 21 22  1  0  0  0  0
 21 23  4  0  0  0  0
 23 24  4  0  0  0  0
M  STY  1   1 DAT
M  SAL   1  1  16
M  SDT   1 MRV_IMPLICIT_H                                        
M  SDD   1     0.0000    0.0000    DR    ALL  0       0  
M  SED   1 IMPL_H1
M  END
>  <Name_Molregno>
112040

>  <DOPAMINE D2>
6.48

>  <DOPAMINE D3>
6.05

>  <DOPAMINE D4>
8

$$$$
112053
  Marvin  02231216192D 0   1.00000     0.00000     0

 22 25  0  0  0  0  0  0  0  0999 V2000
   -0.1703   -0.4720    0.0000 O   0  0  0  0  0  0  0  0  0
    0.6143   -0.2171    0.0000 C   0  0  0  0  0  0  0  0  0
    0.6143    0.6079    0.0000 C   0  0  0  0  0  0  0  0  0
   -0.1703    0.8629    0.0000 N   0  0  0  0  0  0  0  0  0
   -0.6552    0.1954    0.0000 C   0  0  0  0  0  0  0  0  0
   -1.4802    0.1954    0.0000 C   0  0  0  0  0  0  0  0  0
   -1.8927   -0.5190    0.0000 C   0  0  0  0  0  0  0  0  0
   -2.7177   -0.5190    0.0000 C   0  0  0  0  0  0  0  0  0
   -3.1302    0.1954    0.0000 N   0  0  0  0  0  0  0  0  0
   -2.7177    0.9099    0.0000 C   0  0  0  0  0  0  0  0  0
   -1.8927    0.9099    0.0000 C   0  0  0  0  0  0  0  0  0
   -3.9552    0.1954    0.0000 C   0  0  0  0  0  0  0  0  0
   -4.3677    0.9099    0.0000 C   0  0  0  0  0  0  0  0  0
   -5.1927    0.9099    0.0000 C   0  0  0  0  0  0  0  0  0
   -5.6052    1.6244    0.0000 C   0  0  0  0  0  0  0  0  0
   -5.1927    2.3388    0.0000 C   0  0  0  0  0  0  0  0  0
   -4.3677    2.3388    0.0000 C   0  0  0  0  0  0  0  0  0
   -3.9552    1.6244    0.0000 C   0  0  0  0  0  0  0  0  0
    1.3288    1.0204    0.0000 C   0  0  0  0  0  0  0  0  0
    2.0433    0.6079    0.0000 C   0  0  0  0  0  0  0  0  0
    2.0433   -0.2171    0.0000 C   0  0  0  0  0  0  0  0  0
    1.3288   -0.6296    0.0000 C   0  0  0  0  0  0  0  0  0
  1  2  4  0  0  0  0
  1  5  4  0  0  0  0
  2  3  4  0  0  0  0
  2 22  4  0  0  0  0
  3  4  4  0  0  0  0
  3 19  4  0  0  0  0
  4  5  4  0  0  0  0
  5  6  1  0  0  0  0
  6  7  1  0  0  0  0
  6 11  2  0  0  0  0
  7  8  1  0  0  0  0
  8  9  1  0  0  0  0
  9 10  1  0  0  0  0
  9 12  1  0  0  0  0
 10 11  1  0  0  0  0
 12 13  1  0  0  0  0
 13 14  4  0  0  0  0
 13 18  4  0  0  0  0
 14 15  4  0  0  0  0
 15 16  4  0  0  0  0
 16 17  4  0  0  0  0
 17 18  4  0  0  0  0
 19 20  4  0  0  0  0
 20 21  4  0  0  0  0
 21 22  4  0  0  0  0
M  END
>  <Name_Molregno>
112053

>  <DOPAMINE D2>
6.62

>  <DOPAMINE D3>
5.35

>  <DOPAMINE D4>
7.01

$$$$
112442
  Marvin  02231216192D 0   1.00000     0.00000     0

 23 26  0  0  0  0  0  0  0  0999 V2000
   -0.2116   -2.3213    0.0000 Cl  0  0  0  0  0  0  0  0  0
    0.6134   -2.3213    0.0000 C   0  0  0  0  0  0  0  0  0
    1.0259   -1.6068    0.0000 C   0  0  0  0  0  0  0  0  0
    1.8509   -1.6068    0.0000 C   0  0  0  0  0  0  0  0  0
    2.2634   -2.3213    0.0000 C   0  0  0  0  0  0  0  0  0
    1.8509   -3.0358    0.0000 C   0  0  0  0  0  0  0  0  0
    1.0259   -3.0358    0.0000 C   0  0  0  0  0  0  0  0  0
    2.2634   -0.8923    0.0000 C   0  0  0  0  0  0  0  0  0
    3.0884   -0.8923    0.0000 N   0  0  0  0  0  0  0  0  0
    3.5009   -0.1779    0.0000 C   0  0  0  0  0  0  0  0  0
    4.3259   -0.1779    0.0000 C   0  0  0  0  0  0  0  0  0
    4.7384   -0.8923    0.0000 C   0  0  0  0  0  0  0  0  0
    4.3259   -1.6068    0.0000 C   0  0  0  0  0  0  0  0  0
    3.5009   -1.6068    0.0000 C   0  0  0  0  0  0  0  0  0
    5.5634   -0.8923    0.0000 C   0  0  0  0  0  0  0  0  0
    6.0483   -1.5598    0.0000 S   0  0  0  0  0  0  0  0  0
    6.8329   -1.3048    0.0000 C   0  0  0  0  0  0  0  0  0
    6.8329   -0.4798    0.0000 C   0  0  0  0  0  0  0  0  0
    6.0483   -0.2249    0.0000 N   0  0  0  0  0  0  0  0  0
    7.5474   -0.0673    0.0000 C   0  0  0  0  0  0  0  0  0
    8.2619   -0.4798    0.0000 C   0  0  0  0  0  0  0  0  0
    8.2619   -1.3048    0.0000 C   0  0  0  0  0  0  0  0  0
    7.5474   -1.7173    0.0000 C   0  0  0  0  0  0  0  0  0
  1  2  1  0  0  0  0
  2  3  4  0  0  0  0
  2  7  4  0  0  0  0
  3  4  4  0  0  0  0
  4  5  4  0  0  0  0
  4  8  1  0  0  0  0
  5  6  4  0  0  0  0
  6  7  4  0  0  0  0
  8  9  1  0  0  0  0
  9 10  1  0  0  0  0
  9 14  1  0  0  0  0
 10 11  1  0  0  0  0
 11 12  1  0  0  0  0
 12 13  2  0  0  0  0
 12 15  1  0  0  0  0
 13 14  1  0  0  0  0
 15 16  4  0  0  0  0
 15 19  4  0  0  0  0
 16 17  4  0  0  0  0
 17 18  4  0  0  0  0
 17 23  4  0  0  0  0
 18 19  4  0  0  0  0
 18 20  4  0  0  0  0
 20 21  4  0  0  0  0
 21 22  4  0  0  0  0
 22 23  4  0  0  0  0
M  END
>  <Name_Molregno>
112442

>  <DOPAMINE D2>
6.47

>  <DOPAMINE D3>
6.2

>  <DOPAMINE D4>
8.09

$$$$
112443
  Marvin  02231216192D 0   1.00000     0.00000     0

 24 27  0  0  0  0  0  0  0  0999 V2000
   -8.2573   -2.5981    0.0000 Cl  0  0  0  0  0  0  0  0  0
   -7.8448   -1.8836    0.0000 C   0  0  0  0  0  0  0  0  0
   -8.2573   -1.1691    0.0000 C   0  0  0  0  0  0  0  0  0
   -7.8448   -0.4547    0.0000 C   0  0  0  0  0  0  0  0  0
   -7.0198   -0.4547    0.0000 C   0  0  0  0  0  0  0  0  0
   -6.6073   -1.1691    0.0000 C   0  0  0  0  0  0  0  0  0
   -7.0198   -1.8836    0.0000 C   0  0  0  0  0  0  0  0  0
   -6.6073    0.2598    0.0000 C   0  0  0  0  0  0  0  0  0
   -5.7823    0.2598    0.0000 N   0  0  0  0  0  0  0  0  0
   -5.3698    0.9743    0.0000 C   0  0  0  0  0  0  0  0  0
   -4.5448    0.9743    0.0000 C   0  0  0  0  0  0  0  0  0
   -4.1323    0.2598    0.0000 C   0  0  0  0  0  0  0  0  0
   -4.5448   -0.4547    0.0000 C   0  0  0  0  0  0  0  0  0
   -5.3698   -0.4547    0.0000 C   0  0  0  0  0  0  0  0  0
   -3.3073    0.2598    0.0000 C   0  0  0  0  0  0  0  0  0
   -2.8223   -0.4076    0.0000 S   0  0  0  0  0  0  0  0  0
   -2.0377   -0.1527    0.0000 C   0  0  0  0  0  0  0  0  0
   -2.0377    0.6723    0.0000 C   0  0  0  0  0  0  0  0  0
   -2.8223    0.9272    0.0000 N   0  0  0  0  0  0  0  0  0
   -1.3232    1.0848    0.0000 C   0  0  0  0  0  0  0  0  0
   -0.6088    0.6723    0.0000 C   0  0  0  0  0  0  0  0  0
    0.1057    1.0848    0.0000 Cl  0  0  0  0  0  0  0  0  0
   -0.6088   -0.1527    0.0000 C   0  0  0  0  0  0  0  0  0
   -1.3232   -0.5652    0.0000 C   0  0  0  0  0  0  0  0  0
  1  2  1  0  0  0  0
  2  3  4  0  0  0  0
  2  7  4  0  0  0  0
  3  4  4  0  0  0  0
  4  5  4  0  0  0  0
  5  6  4  0  0  0  0
  5  8  1  0  0  0  0
  6  7  4  0  0  0  0
  8  9  1  0  0  0  0
  9 10  1  0  0  0  0
  9 14  1  0  0  0  0
 10 11  1  0  0  0  0
 11 12  1  0  0  0  0
 12 13  2  0  0  0  0
 12 15  1  0  0  0  0
 13 14  1  0  0  0  0
 15 16  4  0  0  0  0
 15 19  4  0  0  0  0
 16 17  4  0  0  0  0
 17 18  4  0  0  0  0
 17 24  4  0  0  0  0
 18 19  4  0  0  0  0
 18 20  4  0  0  0  0
 20 21  4  0  0  0  0
 21 22  1  0  0  0  0
 21 23  4  0  0  0  0
 23 24  4  0  0  0  0
M  END
>  <Name_Molregno>
112443

>  <DOPAMINE D2>
5.7

>  <DOPAMINE D3>
6.18

>  <DOPAMINE D4>
7.68

$$$$
112491
  Marvin  02231216192D 0   1.00000     0.00000     0

 22 25  0  0  0  0  0  0  0  0999 V2000
   -0.1703   -0.4720    0.0000 S   0  0  0  0  0  0  0  0  0
    0.6143   -0.2171    0.0000 C   0  0  0  0  0  0  0  0  0
    0.6143    0.6079    0.0000 C   0  0  0  0  0  0  0  0  0
   -0.1703    0.8629    0.0000 N   0  0  0  0  0  0  0  0  0
   -0.6552    0.1954    0.0000 C   0  0  0  0  0  0  0  0  0
   -1.4802    0.1954    0.0000 C   0  0  0  0  0  0  0  0  0
   -1.8927   -0.5190    0.0000 C   0  0  0  0  0  0  0  0  0
   -2.7177   -0.5190    0.0000 C   0  0  0  0  0  0  0  0  0
   -3.1302    0.1954    0.0000 N   0  0  0  0  0  0  0  0  0
   -2.7177    0.9099    0.0000 C   0  0  0  0  0  0  0  0  0
   -1.8927    0.9099    0.0000 C   0  0  0  0  0  0  0  0  0
   -3.9552    0.1954    0.0000 C   0  0  0  0  0  0  0  0  0
   -4.3677    0.9099    0.0000 C   0  0  0  0  0  0  0  0  0
   -5.1927    0.9099    0.0000 C   0  0  0  0  0  0  0  0  0
   -5.6052    1.6244    0.0000 C   0  0  0  0  0  0  0  0  0
   -5.1927    2.3388    0.0000 C   0  0  0  0  0  0  0  0  0
   -4.3677    2.3388    0.0000 C   0  0  0  0  0  0  0  0  0
   -3.9552    1.6244    0.0000 C   0  0  0  0  0  0  0  0  0
    1.3288    1.0204    0.0000 C   0  0  0  0  0  0  0  0  0
    2.0433    0.6079    0.0000 C   0  0  0  0  0  0  0  0  0
    2.0433   -0.2171    0.0000 C   0  0  0  0  0  0  0  0  0
    1.3288   -0.6296    0.0000 C   0  0  0  0  0  0  0  0  0
  1  2  4  0  0  0  0
  1  5  4  0  0  0  0
  2  3  4  0  0  0  0
  2 22  4  0  0  0  0
  3  4  4  0  0  0  0
  3 19  4  0  0  0  0
  4  5  4  0  0  0  0
  5  6  1  0  0  0  0
  6  7  1  0  0  0  0
  6 11  2  0  0  0  0
  7  8  1  0  0  0  0
  8  9  1  0  0  0  0
  9 10  1  0  0  0  0
  9 12  1  0  0  0  0
 10 11  1  0  0  0  0
 12 13  1  0  0  0  0
 13 14  4  0  0  0  0
 13 18  4  0  0  0  0
 14 15  4  0  0  0  0
 15 16  4  0  0  0  0
 16 17  4  0  0  0  0
 17 18  4  0  0  0  0
 19 20  4  0  0  0  0
 20 21  4  0  0  0  0
 21 22  4  0  0  0  0
M  END
>  <Name_Molregno>
112491

>  <DOPAMINE D2>
6.22

>  <DOPAMINE D3>
6.25

>  <DOPAMINE D4>
8.3

$$$$
112492
  Marvin  02231216192D 0   1.00000     0.00000     0

 23 26  0  0  0  0  0  0  0  0999 V2000
    8.7407   -0.9689    0.0000 Cl  0  0  0  0  0  0  0  0  0
    8.0262   -0.5564    0.0000 C   0  0  0  0  0  0  0  0  0
    7.3117   -0.9689    0.0000 C   0  0  0  0  0  0  0  0  0
    6.5973   -0.5564    0.0000 C   0  0  0  0  0  0  0  0  0
    5.8126   -0.8114    0.0000 N   0  0  0  0  0  0  0  0  0
    5.3277   -0.1439    0.0000 C   0  0  0  0  0  0  0  0  0
    5.8126    0.5235    0.0000 O   0  0  0  0  0  0  0  0  0
    6.5973    0.2686    0.0000 C   0  0  0  0  0  0  0  0  0
    7.3117    0.6811    0.0000 C   0  0  0  0  0  0  0  0  0
    8.0262    0.2686    0.0000 C   0  0  0  0  0  0  0  0  0
    4.5027   -0.1439    0.0000 C   0  0  0  0  0  0  0  0  0
    4.0902   -0.8584    0.0000 C   0  0  0  0  0  0  0  0  0
    3.2652   -0.8584    0.0000 C   0  0  0  0  0  0  0  0  0
    2.8527   -0.1439    0.0000 N   0  0  0  0  0  0  0  0  0
    3.2652    0.5705    0.0000 C   0  0  0  0  0  0  0  0  0
    4.0902    0.5705    0.0000 C   0  0  0  0  0  0  0  0  0
    2.0277   -0.1439    0.0000 C   0  0  0  0  0  0  0  0  0
    1.6152    0.5705    0.0000 C   0  0  0  0  0  0  0  0  0
    0.7902    0.5705    0.0000 C   0  0  0  0  0  0  0  0  0
    0.3777    1.2850    0.0000 C   0  0  0  0  0  0  0  0  0
    0.7902    1.9995    0.0000 C   0  0  0  0  0  0  0  0  0
    1.6152    1.9995    0.0000 C   0  0  0  0  0  0  0  0  0
    2.0277    1.2850    0.0000 C   0  0  0  0  0  0  0  0  0
  1  2  1  0  0  0  0
  2  3  4  0  0  0  0
  2 10  4  0  0  0  0
  3  4  4  0  0  0  0
  4  5  4  0  0  0  0
  4  8  4  0  0  0  0
  5  6  4  0  0  0  0
  6  7  4  0  0  0  0
  6 11  1  0  0  0  0
  7  8  4  0  0  0  0
  8  9  4  0  0  0  0
  9 10  4  0  0  0  0
 11 12  1  0  0  0  0
 11 16  2  0  0  0  0
 12 13  1  0  0  0  0
 13 14  1  0  0  0  0
 14 15  1  0  0  0  0
 14 17  1  0  0  0  0
 15 16  1  0  0  0  0
 17 18  1  0  0  0  0
 18 19  4  0  0  0  0
 18 23  4  0  0  0  0
 19 20  4  0  0  0  0
 20 21  4  0  0  0  0
 21 22  4  0  0  0  0
 22 23  4  0  0  0  0
M  END
>  <Name_Molregno>
112492

>  <DOPAMINE D2>
5.74

>  <DOPAMINE D3>
5.8

>  <DOPAMINE D4>
7.77

$$$$
112509
  Marvin  02231216192D 0   1.00000     0.00000     0

 23 26  0  0  0  0  0  0  0  0999 V2000
   -4.8251   -1.3751    0.0000 Cl  0  0  0  0  0  0  0  0  0
   -5.6501   -1.3751    0.0000 C   0  0  0  0  0  0  0  0  0
   -6.0626   -2.0895    0.0000 C   0  0  0  0  0  0  0  0  0
   -6.8876   -2.0895    0.0000 C   0  0  0  0  0  0  0  0  0
   -7.3001   -1.3751    0.0000 C   0  0  0  0  0  0  0  0  0
   -6.8876   -0.6606    0.0000 C   0  0  0  0  0  0  0  0  0
   -6.0626   -0.6606    0.0000 C   0  0  0  0  0  0  0  0  0
   -5.6501    0.0539    0.0000 C   0  0  0  0  0  0  0  0  0
   -4.8251    0.0539    0.0000 N   0  0  0  0  0  0  0  0  0
   -4.4126    0.7684    0.0000 C   0  0  0  0  0  0  0  0  0
   -3.5876    0.7684    0.0000 C   0  0  0  0  0  0  0  0  0
   -3.1751    0.0539    0.0000 C   0  0  0  0  0  0  0  0  0
   -3.5876   -0.6606    0.0000 C   0  0  0  0  0  0  0  0  0
   -4.4126   -0.6606    0.0000 C   0  0  0  0  0  0  0  0  0
   -2.3501    0.0539    0.0000 C   0  0  0  0  0  0  0  0  0
   -1.8651   -0.6136    0.0000 S   0  0  0  0  0  0  0  0  0
   -1.0805   -0.3586    0.0000 C   0  0  0  0  0  0  0  0  0
   -1.0805    0.4664    0.0000 C   0  0  0  0  0  0  0  0  0
   -1.8651    0.7213    0.0000 N   0  0  0  0  0  0  0  0  0
   -0.3661    0.8789    0.0000 C   0  0  0  0  0  0  0  0  0
    0.3484    0.4664    0.0000 C   0  0  0  0  0  0  0  0  0
    0.3484   -0.3586    0.0000 C   0  0  0  0  0  0  0  0  0
   -0.3661   -0.7711    0.0000 C   0  0  0  0  0  0  0  0  0
  1  2  1  0  0  0  0
  2  3  4  0  0  0  0
  2  7  4  0  0  0  0
  3  4  4  0  0  0  0
  4  5  4  0  0  0  0
  5  6  4  0  0  0  0
  6  7  4  0  0  0  0
  7  8  1  0  0  0  0
  8  9  1  0  0  0  0
  9 10  1  0  0  0  0
  9 14  1  0  0  0  0
 10 11  1  0  0  0  0
 11 12  1  0  0  0  0
 12 13  2  0  0  0  0
 12 15  1  0  0  0  0
 13 14  1  0  0  0  0
 15 16  4  0  0  0  0
 15 19  4  0  0  0  0
 16 17  4  0  0  0  0
 17 18  4  0  0  0  0
 17 23  4  0  0  0  0
 18 19  4  0  0  0  0
 18 20  4  0  0  0  0
 20 21  4  0  0  0  0
 21 22  4  0  0  0  0
 22 23  4  0  0  0  0
M  END
>  <Name_Molregno>
112509

>  <DOPAMINE D2>
5.7

>  <DOPAMINE D3>
5.85

>  <DOPAMINE D4>
7.06

$$$$
112518
  Marvin  02231216192D 0   1.00000     0.00000     0

 23 26  0  0  0  0  0  0  0  0999 V2000
    8.7407   -0.9689    0.0000 Cl  0  0  0  0  0  0  0  0  0
    8.0262   -0.5564    0.0000 C   0  0  0  0  0  0  0  0  0
    7.3117   -0.9689    0.0000 C   0  0  0  0  0  0  0  0  0
    6.5973   -0.5564    0.0000 C   0  0  0  0  0  0  0  0  0
    5.8126   -0.8114    0.0000 N   0  0  0  0  0  0  0  0  0
    5.3277   -0.1439    0.0000 C   0  0  0  0  0  0  0  0  0
    5.8126    0.5235    0.0000 N   0  0  0  0  0  0  0  0  0
    6.5973    0.2686    0.0000 C   0  0  0  0  0  0  0  0  0
    7.3117    0.6811    0.0000 C   0  0  0  0  0  0  0  0  0
    8.0262    0.2686    0.0000 C   0  0  0  0  0  0  0  0  0
    4.5027   -0.1439    0.0000 C   0  0  0  0  0  0  0  0  0
    4.0902   -0.8584    0.0000 C   0  0  0  0  0  0  0  0  0
    3.2652   -0.8584    0.0000 C   0  0  0  0  0  0  0  0  0
    2.8527   -0.1439    0.0000 N   0  0  0  0  0  0  0  0  0
    3.2652    0.5705    0.0000 C   0  0  0  0  0  0  0  0  0
    4.0902    0.5705    0.0000 C   0  0  0  0  0  0  0  0  0
    2.0277   -0.1439    0.0000 C   0  0  0  0  0  0  0  0  0
    1.6152    0.5705    0.0000 C   0  0  0  0  0  0  0  0  0
    0.7902    0.5705    0.0000 C   0  0  0  0  0  0  0  0  0
    0.3777    1.2850    0.0000 C   0  0  0  0  0  0  0  0  0
    0.7902    1.9995    0.0000 C   0  0  0  0  0  0  0  0  0
    1.6152    1.9995    0.0000 C   0  0  0  0  0  0  0  0  0
    2.0277    1.2850    0.0000 C   0  0  0  0  0  0  0  0  0
  1  2  1  0  0  0  0
  2  3  4  0  0  0  0
  2 10  4  0  0  0  0
  3  4  4  0  0  0  0
  4  5  4  0  0  0  0
  4  8  4  0  0  0  0
  5  6  4  0  0  0  0
  6  7  4  0  0  0  0
  6 11  1  0  0  0  0
  7  8  4  0  0  0  0
  8  9  4  0  0  0  0
  9 10  4  0  0  0  0
 11 12  1  0  0  0  0
 11 16  2  0  0  0  0
 12 13  1  0  0  0  0
 13 14  1  0  0  0  0
 14 15  1  0  0  0  0
 14 17  1  0  0  0  0
 15 16  1  0  0  0  0
 17 18  1  0  0  0  0
 18 19  4  0  0  0  0
 18 23  4  0  0  0  0
 19 20  4  0  0  0  0
 20 21  4  0  0  0  0
 21 22  4  0  0  0  0
 22 23  4  0  0  0  0
M  STY  1   1 DAT
M  SAL   1  1   7
M  SDT   1 MRV_IMPLICIT_H                                        
M  SDD   1     0.0000    0.0000    DR    ALL  0       0  
M  SED   1 IMPL_H1
M  END
>  <Name_Molregno>
112518

>  <DOPAMINE D2>
6.23

>  <DOPAMINE D3>
5.54

>  <DOPAMINE D4>
7.59

$$$$
112539
  Marvin  02231216192D 0   1.00000     0.00000     0

 23 26  0  0  0  0  0  0  0  0999 V2000
   -7.8673   -2.6018    0.0000 Cl  0  0  0  0  0  0  0  0  0
   -7.4548   -1.8873    0.0000 C   0  0  0  0  0  0  0  0  0
   -7.8673   -1.1728    0.0000 C   0  0  0  0  0  0  0  0  0
   -7.4548   -0.4584    0.0000 C   0  0  0  0  0  0  0  0  0
   -6.6298   -0.4584    0.0000 C   0  0  0  0  0  0  0  0  0
   -6.2173   -1.1728    0.0000 C   0  0  0  0  0  0  0  0  0
   -6.6298   -1.8873    0.0000 C   0  0  0  0  0  0  0  0  0
   -6.2173    0.2561    0.0000 C   0  0  0  0  0  0  0  0  0
   -5.3923    0.2561    0.0000 N   0  0  0  0  0  0  0  0  0
   -4.9798    0.9706    0.0000 C   0  0  0  0  0  0  0  0  0
   -4.1548    0.9706    0.0000 C   0  0  0  0  0  0  0  0  0
   -3.7423    0.2561    0.0000 C   0  0  0  0  0  0  0  0  0
   -4.1548   -0.4584    0.0000 C   0  0  0  0  0  0  0  0  0
   -4.9798   -0.4584    0.0000 C   0  0  0  0  0  0  0  0  0
   -2.9173    0.2561    0.0000 C   0  0  0  0  0  0  0  0  0
   -2.4324   -0.4113    0.0000 S   0  0  0  0  0  0  0  0  0
   -1.6477   -0.1564    0.0000 C   0  0  0  0  0  0  0  0  0
   -1.6477    0.6686    0.0000 C   0  0  0  0  0  0  0  0  0
   -2.4324    0.9236    0.0000 N   0  0  0  0  0  0  0  0  0
   -0.9333    1.0811    0.0000 C   0  0  0  0  0  0  0  0  0
   -0.2188    0.6686    0.0000 C   0  0  0  0  0  0  0  0  0
   -0.2188   -0.1564    0.0000 C   0  0  0  0  0  0  0  0  0
   -0.9333   -0.5689    0.0000 C   0  0  0  0  0  0  0  0  0
  1  2  1  0  0  0  0
  2  3  4  0  0  0  0
  2  7  4  0  0  0  0
  3  4  4  0  0  0  0
  4  5  4  0  0  0  0
  5  6  4  0  0  0  0
  5  8  1  0  0  0  0
  6  7  4  0  0  0  0
  8  9  1  0  0  0  0
  9 10  1  0  0  0  0
  9 14  1  0  0  0  0
 10 11  1  0  0  0  0
 11 12  1  0  0  0  0
 12 13  2  0  0  0  0
 12 15  1  0  0  0  0
 13 14  1  0  0  0  0
 15 16  4  0  0  0  0
 15 19  4  0  0  0  0
 16 17  4  0  0  0  0
 17 18  4  0  0  0  0
 17 23  4  0  0  0  0
 18 19  4  0  0  0  0
 18 20  4  0  0  0  0
 20 21  4  0  0  0  0
 21 22  4  0  0  0  0
 22 23  4  0  0  0  0
M  END
>  <Name_Molregno>
112539

>  <DOPAMINE D2>
5.8

>  <DOPAMINE D3>
5.36

>  <DOPAMINE D4>
8.89

$$$$
120674
  Marvin  02231216192D 0   1.00000     0.00000     0

 27 29  0  0  1  0  0  0  0  0999 V2000
    4.4208    6.3587    0.0000 F   0  0  0  0  0  0  0  0  0
    4.4208    5.5337    0.0000 C   0  0  0  0  0  0  0  0  0
    5.1353    5.1212    0.0000 C   0  0  0  0  0  0  0  0  0
    5.1353    4.2962    0.0000 C   0  0  0  0  0  0  0  0  0
    4.4208    3.8837    0.0000 C   0  0  0  0  0  0  0  0  0
    3.7063    4.2962    0.0000 C   0  0  0  0  0  0  0  0  0
    3.7063    5.1212    0.0000 C   0  0  0  0  0  0  0  0  0
    4.4208    3.0587    0.0000 C   0  0  0  0  0  0  0  0  0
    5.1353    2.6462    0.0000 C   0  0  0  0  0  0  0  0  0
    5.1353    1.8212    0.0000 N   0  0  0  0  0  0  0  0  0
    5.8497    1.4087    0.0000 C   0  0  0  0  0  0  0  0  0
    5.8497    0.5837    0.0000 C   0  0  0  0  0  0  0  0  0
    5.1353    0.1712    0.0000 C   0  0  0  0  0  0  0  0  0
    4.4208    0.5837    0.0000 C   0  0  0  0  0  0  0  0  0
    4.4208    1.4087    0.0000 C   0  0  0  0  0  0  0  0  0
    5.1353   -0.6538    0.0000 C   0  0  0  0  0  0  0  0  0
    4.4208   -1.0663    0.0000 O   0  0  0  0  0  0  0  0  0
    5.8497   -1.0663    0.0000 C   0  0  0  0  0  0  0  0  0
    6.5642   -0.6538    0.0000 C   0  0  0  0  0  0  0  0  0
    7.2787   -1.0663    0.0000 C   0  0  0  0  0  0  0  0  0
    7.2787   -1.8913    0.0000 C   0  0  0  0  0  0  0  0  0
    6.5642   -2.3038    0.0000 C   0  0  0  0  0  0  0  0  0
    6.5642   -3.1288    0.0000 O   0  0  0  0  0  0  0  0  0
    7.2787   -3.5413    0.0000 C   0  0  0  0  0  0  0  0  0
    5.8497   -1.8913    0.0000 C   0  0  0  0  0  0  0  0  0
    5.1353   -2.3038    0.0000 O   0  0  0  0  0  0  0  0  0
    5.1353   -3.1288    0.0000 C   0  0  0  0  0  0  0  0  0
  1  2  1  0  0  0  0
  2  3  4  0  0  0  0
  2  7  4  0  0  0  0
  3  4  4  0  0  0  0
  4  5  4  0  0  0  0
  5  6  4  0  0  0  0
  5  8  1  0  0  0  0
  6  7  4  0  0  0  0
  8  9  1  0  0  0  0
  9 10  1  0  0  0  0
 10 11  1  0  0  0  0
 10 15  1  0  0  0  0
 11 12  1  0  0  0  0
 12 13  1  0  0  0  0
 13 14  1  0  0  0  0
 13 16  1  0  0  0  0
 14 15  1  0  0  0  0
 16 17  1  0  0  0  0
 16 18  1  0  0  0  0
 18 19  4  0  0  0  0
 18 25  4  0  0  0  0
 19 20  4  0  0  0  0
 20 21  4  0  0  0  0
 21 22  4  0  0  0  0
 22 23  1  0  0  0  0
 22 25  4  0  0  0  0
 23 24  1  0  0  0  0
 25 26  1  0  0  0  0
 26 27  1  0  0  0  0
M  END
>  <Name_Molregno>
120674

>  <5-HT1A>
5

>  <5-HT1E>
5

>  <5-HT2A>
9.16

>  <5-HT2C>
7.37

>  <5-HT3>
5

>  <5-HT5>
5

>  <5-HT6>
5.46

>  <Alpha-1A>
6.41

>  <Alpha-1B>
6.37

>  <Alpha-2A>
5.72

>  <Alpha-2B>
6.57

>  <Alpha-2C>
5.84

>  <Beta-1>
5

>  <Beta-2>
5

>  <DOPAMINE D1>
5.67

>  <DOPAMINE D2>
5.23

>  <DOPAMINE D4>
5.42

>  <DOPAMINE D5>
5

>  <Dopamine transporter>
5

>  <HISTAMINE H1>
7.18

>  <HISTAMINE H4>
5

>  <Muscarinic acetylcholine receptor M1>
5

>  <Muscarinic acetylcholine receptor M2>
5

>  <Muscarinic acetylcholine receptor M3>
5

>  <Muscarinic acetylcholine receptor M4>
5

>  <Muscarinic acetylcholine receptor M5>
5

>  <Norepinephrine transporter>
5

>  <Serotonin transporter>
5

$$$$
122429
  Marvin  02231216192D 0   1.00000     0.00000     0

 23 26  0  0  0  0  0  0  0  0999 V2000
    1.4515   -2.7342    0.0000 Cl  0  0  0  0  0  0  0  0  0
    1.8640   -2.0197    0.0000 C   0  0  0  0  0  0  0  0  0
    1.4515   -1.3053    0.0000 C   0  0  0  0  0  0  0  0  0
    1.8640   -0.5908    0.0000 C   0  0  0  0  0  0  0  0  0
    2.6890   -0.5908    0.0000 C   0  0  0  0  0  0  0  0  0
    3.1015    0.1237    0.0000 N   0  0  0  0  0  0  0  0  0
    2.6890    0.8382    0.0000 C   0  0  0  0  0  0  0  0  0
    3.1015    1.5526    0.0000 C   0  0  0  0  0  0  0  0  0
    3.9265    1.5526    0.0000 N   0  0  0  0  0  0  0  0  0
    4.3390    0.8382    0.0000 C   0  0  0  0  0  0  0  0  0
    3.9265    0.1237    0.0000 C   0  0  0  0  0  0  0  0  0
    4.3390    2.2671    0.0000 C   0  0  0  0  0  0  0  0  0
    5.1640    2.2671    0.0000 C   0  0  0  0  0  0  0  0  0
    5.6489    1.5997    0.0000 N   0  0  0  0  0  0  0  0  0
    6.4336    1.8546    0.0000 N   0  0  0  0  0  0  0  0  0
    6.4336    2.6796    0.0000 C   0  0  0  0  0  0  0  0  0
    5.6489    2.9345    0.0000 C   0  0  0  0  0  0  0  0  0
    7.1480    3.0921    0.0000 C   0  0  0  0  0  0  0  0  0
    7.8625    2.6796    0.0000 C   0  0  0  0  0  0  0  0  0
    7.8625    1.8546    0.0000 C   0  0  0  0  0  0  0  0  0
    7.1480    1.4421    0.0000 C   0  0  0  0  0  0  0  0  0
    3.1015   -1.3053    0.0000 C   0  0  0  0  0  0  0  0  0
    2.6890   -2.0197    0.0000 C   0  0  0  0  0  0  0  0  0
  1  2  1  0  0  0  0
  2  3  4  0  0  0  0
  2 23  4  0  0  0  0
  3  4  4  0  0  0  0
  4  5  4  0  0  0  0
  5  6  1  0  0  0  0
  5 22  4  0  0  0  0
  6  7  1  0  0  0  0
  6 11  1  0  0  0  0
  7  8  1  0  0  0  0
  8  9  1  0  0  0  0
  9 10  1  0  0  0  0
  9 12  1  0  0  0  0
 10 11  1  0  0  0  0
 12 13  1  0  0  0  0
 13 14  4  0  0  0  0
 13 17  4  0  0  0  0
 14 15  4  0  0  0  0
 15 16  4  0  0  0  0
 15 21  4  0  0  0  0
 16 17  4  0  0  0  0
 16 18  4  0  0  0  0
 18 19  4  0  0  0  0
 19 20  4  0  0  0  0
 20 21  4  0  0  0  0
 22 23  4  0  0  0  0
M  END
>  <Name_Molregno>
122429

>  <DOPAMINE D2>
5.46

>  <DOPAMINE D3>
5.25

>  <DOPAMINE D4>
8.54

$$$$
125195
  Marvin  02231216192D 0   1.00000     0.00000     0

 27 30  0  0  0  0  0  0  0  0999 V2000
   -6.4751   -1.3375    0.0000 O   0  0  0  0  0  0  0  0  0
   -5.7607   -0.9250    0.0000 C   0  0  0  0  0  0  0  0  0
   -5.7607   -0.1000    0.0000 C   0  0  0  0  0  0  0  0  0
   -6.4751    0.3125    0.0000 N   0  0  0  0  0  0  0  0  0
   -7.1896   -0.1000    0.0000 C   0  0  0  0  0  0  0  0  0
   -7.1896   -0.9250    0.0000 C   0  0  0  0  0  0  0  0  0
   -7.9041   -1.3375    0.0000 C   0  0  0  0  0  0  0  0  0
   -8.6185   -0.9250    0.0000 C   0  0  0  0  0  0  0  0  0
   -8.6185   -0.1000    0.0000 C   0  0  0  0  0  0  0  0  0
   -7.9041    0.3125    0.0000 C   0  0  0  0  0  0  0  0  0
   -5.0462    0.3125    0.0000 N   0  0  0  0  0  0  0  0  0
   -4.3317   -0.1000    0.0000 C   0  0  0  0  0  0  0  0  0
   -3.6172    0.3125    0.0000 C   0  0  0  0  0  0  0  0  0
   -2.9028   -0.1000    0.0000 C   0  0  0  0  0  0  0  0  0
   -2.1883    0.3125    0.0000 C   0  0  0  0  0  0  0  0  0
   -1.4738   -0.1000    0.0000 N   0  0  0  0  0  0  0  0  0
   -0.7594    0.3125    0.0000 C   0  0  0  0  0  0  0  0  0
   -0.0449   -0.1000    0.0000 C   0  0  0  0  0  0  0  0  0
   -0.0449   -0.9250    0.0000 N   0  0  0  0  0  0  0  0  0
   -0.7594   -1.3375    0.0000 C   0  0  0  0  0  0  0  0  0
   -1.4738   -0.9250    0.0000 C   0  0  0  0  0  0  0  0  0
    0.6696   -1.3375    0.0000 C   0  0  0  0  0  0  0  0  0
    1.3841   -0.9250    0.0000 C   0  0  0  0  0  0  0  0  0
    2.0985   -1.3375    0.0000 C   0  0  0  0  0  0  0  0  0
    2.0985   -2.1625    0.0000 C   0  0  0  0  0  0  0  0  0
    1.3841   -2.5750    0.0000 C   0  0  0  0  0  0  0  0  0
    0.6696   -2.1625    0.0000 C   0  0  0  0  0  0  0  0  0
  1  2  1  0  0  0  0
  1  6  1  0  0  0  0
  2  3  1  0  0  0  0
  3  4  2  0  0  0  0
  3 11  1  0  0  0  0
  4  5  1  0  0  0  0
  5  6  4  0  0  0  0
  5 10  4  0  0  0  0
  6  7  4  0  0  0  0
  7  8  4  0  0  0  0
  8  9  4  0  0  0  0
  9 10  4  0  0  0  0
 11 12  1  0  0  0  0
 12 13  1  0  0  0  0
 13 14  1  0  0  0  0
 14 15  1  0  0  0  0
 15 16  1  0  0  0  0
 16 17  1  0  0  0  0
 16 21  1  0  0  0  0
 17 18  1  0  0  0  0
 18 19  1  0  0  0  0
 19 20  1  0  0  0  0
 19 22  1  0  0  0  0
 20 21  1  0  0  0  0
 22 23  4  0  0  0  0
 22 27  4  0  0  0  0
 23 24  4  0  0  0  0
 24 25  4  0  0  0  0
 25 26  4  0  0  0  0
 26 27  4  0  0  0  0
M  END
>  <Name_Molregno>
125195

>  <DOPAMINE D2>
5.56

>  <DOPAMINE D3>
5.4

>  <DOPAMINE D4>
6.73

$$$$
125905
  Marvin  02231216192D 0   1.00000     0.00000     0

 28 31  0  0  0  0  0  0  0  0999 V2000
   -0.5594    0.5963    0.0000 O   0  0  0  0  0  0  0  0  0
    0.1550    0.1838    0.0000 C   0  0  0  0  0  0  0  0  0
    0.8695    0.5963    0.0000 C   0  0  0  0  0  0  0  0  0
    0.8695    1.4213    0.0000 N   0  0  0  0  0  0  0  0  0
    0.1550    1.8338    0.0000 C   0  0  0  0  0  0  0  0  0
   -0.5594    1.4213    0.0000 C   0  0  0  0  0  0  0  0  0
   -1.2739    1.8338    0.0000 C   0  0  0  0  0  0  0  0  0
   -1.2739    2.6588    0.0000 C   0  0  0  0  0  0  0  0  0
   -0.5594    3.0713    0.0000 C   0  0  0  0  0  0  0  0  0
    0.1550    2.6588    0.0000 C   0  0  0  0  0  0  0  0  0
    1.5840    0.1838    0.0000 N   0  0  0  0  0  0  0  0  0
    2.2985    0.5963    0.0000 C   0  0  0  0  0  0  0  0  0
    3.0129    0.1838    0.0000 C   0  0  0  0  0  0  0  0  0
    3.7274    0.5963    0.0000 C   0  0  0  0  0  0  0  0  0
    4.4419    0.1838    0.0000 C   0  0  0  0  0  0  0  0  0
    5.1563    0.5963    0.0000 C   0  0  0  0  0  0  0  0  0
    5.8708    0.1838    0.0000 N   0  0  0  0  0  0  0  0  0
    6.5853    0.5963    0.0000 C   0  0  0  0  0  0  0  0  0
    7.2998    0.1838    0.0000 C   0  0  0  0  0  0  0  0  0
    7.2998   -0.6412    0.0000 N   0  0  0  0  0  0  0  0  0
    6.5853   -1.0537    0.0000 C   0  0  0  0  0  0  0  0  0
    5.8708   -0.6412    0.0000 C   0  0  0  0  0  0  0  0  0
    8.0142   -1.0537    0.0000 C   0  0  0  0  0  0  0  0  0
    8.7287   -0.6412    0.0000 N   0  0  0  0  0  0  0  0  0
    9.4432   -1.0537    0.0000 C   0  0  0  0  0  0  0  0  0
    9.4432   -1.8787    0.0000 C   0  0  0  0  0  0  0  0  0
    8.7287   -2.2912    0.0000 C   0  0  0  0  0  0  0  0  0
    8.0142   -1.8787    0.0000 N   0  0  0  0  0  0  0  0  0
  1  2  1  0  0  0  0
  1  6  1  0  0  0  0
  2  3  1  0  0  0  0
  3  4  2  0  0  0  0
  3 11  1  0  0  0  0
  4  5  1  0  0  0  0
  5  6  4  0  0  0  0
  5 10  4  0  0  0  0
  6  7  4  0  0  0  0
  7  8  4  0  0  0  0
  8  9  4  0  0  0  0
  9 10  4  0  0  0  0
 11 12  1  0  0  0  0
 12 13  1  0  0  0  0
 13 14  1  0  0  0  0
 14 15  1  0  0  0  0
 15 16  1  0  0  0  0
 16 17  1  0  0  0  0
 17 18  1  0  0  0  0
 17 22  1  0  0  0  0
 18 19  1  0  0  0  0
 19 20  1  0  0  0  0
 20 21  1  0  0  0  0
 20 23  1  0  0  0  0
 21 22  1  0  0  0  0
 23 24  4  0  0  0  0
 23 28  4  0  0  0  0
 24 25  4  0  0  0  0
 25 26  4  0  0  0  0
 26 27  4  0  0  0  0
 27 28  4  0  0  0  0
M  END
>  <Name_Molregno>
125905

>  <DOPAMINE D2>
5.6

>  <DOPAMINE D3>
5.74

>  <DOPAMINE D4>
7.72

$$$$
125939
  Marvin  02231216192D 0   1.00000     0.00000     0

 28 31  0  0  0  0  0  0  0  0999 V2000
   -0.5594    0.5963    0.0000 O   0  0  0  0  0  0  0  0  0
    0.1550    0.1838    0.0000 C   0  0  0  0  0  0  0  0  0
    0.8695    0.5963    0.0000 C   0  0  0  0  0  0  0  0  0
    0.8695    1.4213    0.0000 N   0  0  0  0  0  0  0  0  0
    0.1550    1.8338    0.0000 C   0  0  0  0  0  0  0  0  0
   -0.5594    1.4213    0.0000 C   0  0  0  0  0  0  0  0  0
   -1.2739    1.8338    0.0000 C   0  0  0  0  0  0  0  0  0
   -1.2739    2.6588    0.0000 C   0  0  0  0  0  0  0  0  0
   -0.5594    3.0713    0.0000 C   0  0  0  0  0  0  0  0  0
    0.1550    2.6588    0.0000 C   0  0  0  0  0  0  0  0  0
    1.5840    0.1838    0.0000 N   0  0  0  0  0  0  0  0  0
    2.2985    0.5963    0.0000 C   0  0  0  0  0  0  0  0  0
    3.0129    0.1838    0.0000 C   0  0  0  0  0  0  0  0  0
    3.7274    0.5963    0.0000 C   0  0  0  0  0  0  0  0  0
    4.4419    0.1838    0.0000 C   0  0  0  0  0  0  0  0  0
    5.1563    0.5963    0.0000 C   0  0  0  0  0  0  0  0  0
    5.8708    0.1838    0.0000 N   0  0  0  0  0  0  0  0  0
    6.5853    0.5963    0.0000 C   0  0  0  0  0  0  0  0  0
    7.2998    0.1838    0.0000 C   0  0  0  0  0  0  0  0  0
    7.2998   -0.6412    0.0000 N   0  0  0  0  0  0  0  0  0
    6.5853   -1.0537    0.0000 C   0  0  0  0  0  0  0  0  0
    5.8708   -0.6412    0.0000 C   0  0  0  0  0  0  0  0  0
    8.0142   -1.0537    0.0000 C   0  0  0  0  0  0  0  0  0
    8.7287   -0.6412    0.0000 N   0  0  0  0  0  0  0  0  0
    9.4432   -1.0537    0.0000 C   0  0  0  0  0  0  0  0  0
    9.4432   -1.8787    0.0000 C   0  0  0  0  0  0  0  0  0
    8.7287   -2.2912    0.0000 C   0  0  0  0  0  0  0  0  0
    8.0142   -1.8787    0.0000 C   0  0  0  0  0  0  0  0  0
  1  2  1  0  0  0  0
  1  6  1  0  0  0  0
  2  3  1  0  0  0  0
  3  4  2  0  0  0  0
  3 11  1  0  0  0  0
  4  5  1  0  0  0  0
  5  6  4  0  0  0  0
  5 10  4  0  0  0  0
  6  7  4  0  0  0  0
  7  8  4  0  0  0  0
  8  9  4  0  0  0  0
  9 10  4  0  0  0  0
 11 12  1  0  0  0  0
 12 13  1  0  0  0  0
 13 14  1  0  0  0  0
 14 15  1  0  0  0  0
 15 16  1  0  0  0  0
 16 17  1  0  0  0  0
 17 18  1  0  0  0  0
 17 22  1  0  0  0  0
 18 19  1  0  0  0  0
 19 20  1  0  0  0  0
 20 21  1  0  0  0  0
 20 23  1  0  0  0  0
 21 22  1  0  0  0  0
 23 24  4  0  0  0  0
 23 28  4  0  0  0  0
 24 25  4  0  0  0  0
 25 26  4  0  0  0  0
 26 27  4  0  0  0  0
 27 28  4  0  0  0  0
M  END
>  <Name_Molregno>
125939

>  <DOPAMINE D2>
6.27

>  <DOPAMINE D3>
6.39

>  <DOPAMINE D4>
7.3

$$$$
125941
  Marvin  02231216192D 0   1.00000     0.00000     0

 26 29  0  0  0  0  0  0  0  0999 V2000
   -1.1787    3.0166    0.0000 O   0  0  0  0  0  0  0  0  0
   -1.8932    2.6041    0.0000 C   0  0  0  0  0  0  0  0  0
   -1.8932    1.7791    0.0000 C   0  0  0  0  0  0  0  0  0
   -1.1787    1.3666    0.0000 N   0  0  0  0  0  0  0  0  0
   -0.4643    1.7791    0.0000 C   0  0  0  0  0  0  0  0  0
   -0.4643    2.6041    0.0000 C   0  0  0  0  0  0  0  0  0
    0.2502    3.0166    0.0000 C   0  0  0  0  0  0  0  0  0
    0.9647    2.6041    0.0000 C   0  0  0  0  0  0  0  0  0
    0.9647    1.7791    0.0000 C   0  0  0  0  0  0  0  0  0
    0.2502    1.3666    0.0000 C   0  0  0  0  0  0  0  0  0
   -2.6077    1.3666    0.0000 N   0  0  0  0  0  0  0  0  0
   -2.6077    0.5416    0.0000 C   0  0  0  0  0  0  0  0  0
   -3.3221    0.1291    0.0000 C   0  0  0  0  0  0  0  0  0
   -3.3221   -0.6959    0.0000 C   0  0  0  0  0  0  0  0  0
   -4.0366   -1.1084    0.0000 N   0  0  0  0  0  0  0  0  0
   -4.0366   -1.9334    0.0000 C   0  0  0  0  0  0  0  0  0
   -4.7511   -2.3459    0.0000 C   0  0  0  0  0  0  0  0  0
   -5.4656   -1.9334    0.0000 N   0  0  0  0  0  0  0  0  0
   -5.4656   -1.1084    0.0000 C   0  0  0  0  0  0  0  0  0
   -4.7511   -0.6959    0.0000 C   0  0  0  0  0  0  0  0  0
   -6.1800   -2.3459    0.0000 C   0  0  0  0  0  0  0  0  0
   -6.1800   -3.1709    0.0000 N   0  0  0  0  0  0  0  0  0
   -6.8945   -3.5834    0.0000 C   0  0  0  0  0  0  0  0  0
   -7.6090   -3.1709    0.0000 C   0  0  0  0  0  0  0  0  0
   -7.6090   -2.3459    0.0000 C   0  0  0  0  0  0  0  0  0
   -6.8945   -1.9334    0.0000 C   0  0  0  0  0  0  0  0  0
  1  2  1  0  0  0  0
  1  6  1  0  0  0  0
  2  3  1  0  0  0  0
  3  4  2  0  0  0  0
  3 11  1  0  0  0  0
  4  5  1  0  0  0  0
  5  6  4  0  0  0  0
  5 10  4  0  0  0  0
  6  7  4  0  0  0  0
  7  8  4  0  0  0  0
  8  9  4  0  0  0  0
  9 10  4  0  0  0  0
 11 12  1  0  0  0  0
 12 13  1  0  0  0  0
 13 14  1  0  0  0  0
 14 15  1  0  0  0  0
 15 16  1  0  0  0  0
 15 20  1  0  0  0  0
 16 17  1  0  0  0  0
 17 18  1  0  0  0  0
 18 19  1  0  0  0  0
 18 21  1  0  0  0  0
 19 20  1  0  0  0  0
 21 22  4  0  0  0  0
 21 26  4  0  0  0  0
 22 23  4  0  0  0  0
 23 24  4  0  0  0  0
 24 25  4  0  0  0  0
 25 26  4  0  0  0  0
M  END
>  <Name_Molregno>
125941

>  <DOPAMINE D2>
5.4

>  <DOPAMINE D3>
5.1

>  <DOPAMINE D4>
7.68

$$$$
125979
  Marvin  02231216192D 0   1.00000     0.00000     0

 27 30  0  0  0  0  0  0  0  0999 V2000
   -6.4751   -1.3375    0.0000 O   0  0  0  0  0  0  0  0  0
   -5.7607   -0.9250    0.0000 C   0  0  0  0  0  0  0  0  0
   -5.7607   -0.1000    0.0000 C   0  0  0  0  0  0  0  0  0
   -6.4751    0.3125    0.0000 N   0  0  0  0  0  0  0  0  0
   -7.1896   -0.1000    0.0000 C   0  0  0  0  0  0  0  0  0
   -7.1896   -0.9250    0.0000 C   0  0  0  0  0  0  0  0  0
   -7.9041   -1.3375    0.0000 C   0  0  0  0  0  0  0  0  0
   -8.6185   -0.9250    0.0000 C   0  0  0  0  0  0  0  0  0
   -8.6185   -0.1000    0.0000 C   0  0  0  0  0  0  0  0  0
   -7.9041    0.3125    0.0000 C   0  0  0  0  0  0  0  0  0
   -5.0462    0.3125    0.0000 N   0  0  0  0  0  0  0  0  0
   -4.3317   -0.1000    0.0000 C   0  0  0  0  0  0  0  0  0
   -3.6172    0.3125    0.0000 C   0  0  0  0  0  0  0  0  0
   -2.9028   -0.1000    0.0000 C   0  0  0  0  0  0  0  0  0
   -2.1883    0.3125    0.0000 C   0  0  0  0  0  0  0  0  0
   -1.4738   -0.1000    0.0000 N   0  0  0  0  0  0  0  0  0
   -0.7594    0.3125    0.0000 C   0  0  0  0  0  0  0  0  0
   -0.0449   -0.1000    0.0000 C   0  0  0  0  0  0  0  0  0
   -0.0449   -0.9250    0.0000 N   0  0  0  0  0  0  0  0  0
   -0.7594   -1.3375    0.0000 C   0  0  0  0  0  0  0  0  0
   -1.4738   -0.9250    0.0000 C   0  0  0  0  0  0  0  0  0
    0.6696   -1.3375    0.0000 C   0  0  0  0  0  0  0  0  0
    1.3841   -0.9250    0.0000 N   0  0  0  0  0  0  0  0  0
    2.0985   -1.3375    0.0000 C   0  0  0  0  0  0  0  0  0
    2.0985   -2.1625    0.0000 C   0  0  0  0  0  0  0  0  0
    1.3841   -2.5750    0.0000 C   0  0  0  0  0  0  0  0  0
    0.6696   -2.1625    0.0000 N   0  0  0  0  0  0  0  0  0
  1  2  1  0  0  0  0
  1  6  1  0  0  0  0
  2  3  1  0  0  0  0
  3  4  2  0  0  0  0
  3 11  1  0  0  0  0
  4  5  1  0  0  0  0
  5  6  4  0  0  0  0
  5 10  4  0  0  0  0
  6  7  4  0  0  0  0
  7  8  4  0  0  0  0
  8  9  4  0  0  0  0
  9 10  4  0  0  0  0
 11 12  1  0  0  0  0
 12 13  1  0  0  0  0
 13 14  1  0  0  0  0
 14 15  1  0  0  0  0
 15 16  1  0  0  0  0
 16 17  1  0  0  0  0
 16 21  1  0  0  0  0
 17 18  1  0  0  0  0
 18 19  1  0  0  0  0
 19 20  1  0  0  0  0
 19 22  1  0  0  0  0
 20 21  1  0  0  0  0
 22 23  4  0  0  0  0
 22 27  4  0  0  0  0
 23 24  4  0  0  0  0
 24 25  4  0  0  0  0
 25 26  4  0  0  0  0
 26 27  4  0  0  0  0
M  END
>  <Name_Molregno>
125979

>  <DOPAMINE D2>
5.4

>  <DOPAMINE D3>
5.1

>  <DOPAMINE D4>
6.79

$$$$
126485
  Marvin  02231216192D 0   1.00000     0.00000     0

 26 29  0  0  0  0  0  0  0  0999 V2000
   -1.1787    3.0166    0.0000 O   0  0  0  0  0  0  0  0  0
   -1.8932    2.6041    0.0000 C   0  0  0  0  0  0  0  0  0
   -1.8932    1.7791    0.0000 C   0  0  0  0  0  0  0  0  0
   -1.1787    1.3666    0.0000 N   0  0  0  0  0  0  0  0  0
   -0.4643    1.7791    0.0000 C   0  0  0  0  0  0  0  0  0
   -0.4643    2.6041    0.0000 C   0  0  0  0  0  0  0  0  0
    0.2502    3.0166    0.0000 C   0  0  0  0  0  0  0  0  0
    0.9647    2.6041    0.0000 C   0  0  0  0  0  0  0  0  0
    0.9647    1.7791    0.0000 C   0  0  0  0  0  0  0  0  0
    0.2502    1.3666    0.0000 C   0  0  0  0  0  0  0  0  0
   -2.6077    1.3666    0.0000 N   0  0  0  0  0  0  0  0  0
   -2.6077    0.5416    0.0000 C   0  0  0  0  0  0  0  0  0
   -3.3221    0.1291    0.0000 C   0  0  0  0  0  0  0  0  0
   -3.3221   -0.6959    0.0000 C   0  0  0  0  0  0  0  0  0
   -4.0366   -1.1084    0.0000 N   0  0  0  0  0  0  0  0  0
   -4.0366   -1.9334    0.0000 C   0  0  0  0  0  0  0  0  0
   -4.7511   -2.3459    0.0000 C   0  0  0  0  0  0  0  0  0
   -5.4656   -1.9334    0.0000 N   0  0  0  0  0  0  0  0  0
   -5.4656   -1.1084    0.0000 C   0  0  0  0  0  0  0  0  0
   -4.7511   -0.6959    0.0000 C   0  0  0  0  0  0  0  0  0
   -6.1800   -2.3459    0.0000 C   0  0  0  0  0  0  0  0  0
   -6.1800   -3.1709    0.0000 N   0  0  0  0  0  0  0  0  0
   -6.8945   -3.5834    0.0000 C   0  0  0  0  0  0  0  0  0
   -7.6090   -3.1709    0.0000 C   0  0  0  0  0  0  0  0  0
   -7.6090   -2.3459    0.0000 C   0  0  0  0  0  0  0  0  0
   -6.8945   -1.9334    0.0000 N   0  0  0  0  0  0  0  0  0
  1  2  1  0  0  0  0
  1  6  1  0  0  0  0
  2  3  1  0  0  0  0
  3  4  2  0  0  0  0
  3 11  1  0  0  0  0
  4  5  1  0  0  0  0
  5  6  4  0  0  0  0
  5 10  4  0  0  0  0
  6  7  4  0  0  0  0
  7  8  4  0  0  0  0
  8  9  4  0  0  0  0
  9 10  4  0  0  0  0
 11 12  1  0  0  0  0
 12 13  1  0  0  0  0
 13 14  1  0  0  0  0
 14 15  1  0  0  0  0
 15 16  1  0  0  0  0
 15 20  1  0  0  0  0
 16 17  1  0  0  0  0
 17 18  1  0  0  0  0
 18 19  1  0  0  0  0
 18 21  1  0  0  0  0
 19 20  1  0  0  0  0
 21 22  4  0  0  0  0
 21 26  4  0  0  0  0
 22 23  4  0  0  0  0
 23 24  4  0  0  0  0
 24 25  4  0  0  0  0
 25 26  4  0  0  0  0
M  END
>  <Name_Molregno>
126485

>  <DOPAMINE D2>
5.4

>  <DOPAMINE D3>
5.1

>  <DOPAMINE D4>
6.97

$$$$
126558
  Marvin  02231216192D 0   1.00000     0.00000     0

 26 29  0  0  0  0  0  0  0  0999 V2000
   -1.1787    3.0166    0.0000 O   0  0  0  0  0  0  0  0  0
   -1.8932    2.6041    0.0000 C   0  0  0  0  0  0  0  0  0
   -1.8932    1.7791    0.0000 C   0  0  0  0  0  0  0  0  0
   -1.1787    1.3666    0.0000 N   0  0  0  0  0  0  0  0  0
   -0.4643    1.7791    0.0000 C   0  0  0  0  0  0  0  0  0
   -0.4643    2.6041    0.0000 C   0  0  0  0  0  0  0  0  0
    0.2502    3.0166    0.0000 C   0  0  0  0  0  0  0  0  0
    0.9647    2.6041    0.0000 C   0  0  0  0  0  0  0  0  0
    0.9647    1.7791    0.0000 C   0  0  0  0  0  0  0  0  0
    0.2502    1.3666    0.0000 C   0  0  0  0  0  0  0  0  0
   -2.6077    1.3666    0.0000 N   0  0  0  0  0  0  0  0  0
   -2.6077    0.5416    0.0000 C   0  0  0  0  0  0  0  0  0
   -3.3221    0.1291    0.0000 C   0  0  0  0  0  0  0  0  0
   -3.3221   -0.6959    0.0000 C   0  0  0  0  0  0  0  0  0
   -4.0366   -1.1084    0.0000 N   0  0  0  0  0  0  0  0  0
   -4.0366   -1.9334    0.0000 C   0  0  0  0  0  0  0  0  0
   -4.7511   -2.3459    0.0000 C   0  0  0  0  0  0  0  0  0
   -5.4656   -1.9334    0.0000 N   0  0  0  0  0  0  0  0  0
   -5.4656   -1.1084    0.0000 C   0  0  0  0  0  0  0  0  0
   -4.7511   -0.6959    0.0000 C   0  0  0  0  0  0  0  0  0
   -6.1800   -2.3459    0.0000 C   0  0  0  0  0  0  0  0  0
   -6.1800   -3.1709    0.0000 C   0  0  0  0  0  0  0  0  0
   -6.8945   -3.5834    0.0000 C   0  0  0  0  0  0  0  0  0
   -7.6090   -3.1709    0.0000 C   0  0  0  0  0  0  0  0  0
   -7.6090   -2.3459    0.0000 C   0  0  0  0  0  0  0  0  0
   -6.8945   -1.9334    0.0000 C   0  0  0  0  0  0  0  0  0
  1  2  1  0  0  0  0
  1  6  1  0  0  0  0
  2  3  1  0  0  0  0
  3  4  2  0  0  0  0
  3 11  1  0  0  0  0
  4  5  1  0  0  0  0
  5  6  4  0  0  0  0
  5 10  4  0  0  0  0
  6  7  4  0  0  0  0
  7  8  4  0  0  0  0
  8  9  4  0  0  0  0
  9 10  4  0  0  0  0
 11 12  1  0  0  0  0
 12 13  1  0  0  0  0
 13 14  1  0  0  0  0
 14 15  1  0  0  0  0
 15 16  1  0  0  0  0
 15 20  1  0  0  0  0
 16 17  1  0  0  0  0
 17 18  1  0  0  0  0
 18 19  1  0  0  0  0
 18 21  1  0  0  0  0
 19 20  1  0  0  0  0
 21 22  4  0  0  0  0
 21 26  4  0  0  0  0
 22 23  4  0  0  0  0
 23 24  4  0  0  0  0
 24 25  4  0  0  0  0
 25 26  4  0  0  0  0
M  END
>  <Name_Molregno>
126558

>  <DOPAMINE D2>
5.7

>  <DOPAMINE D3>
5.46

>  <DOPAMINE D4>
7.74

$$$$
126559
  Marvin  02231216192D 0   1.00000     0.00000     0

 28 31  0  0  0  0  0  0  0  0999 V2000
   -6.3501   -1.4393    0.0000 O   0  0  0  0  0  0  0  0  0
   -5.6356   -1.0268    0.0000 C   0  0  0  0  0  0  0  0  0
   -5.6356   -0.2018    0.0000 C   0  0  0  0  0  0  0  0  0
   -6.3501    0.2107    0.0000 N   0  0  0  0  0  0  0  0  0
   -7.0646   -0.2018    0.0000 C   0  0  0  0  0  0  0  0  0
   -7.0646   -1.0268    0.0000 C   0  0  0  0  0  0  0  0  0
   -7.7790   -1.4393    0.0000 C   0  0  0  0  0  0  0  0  0
   -8.4935   -1.0268    0.0000 C   0  0  0  0  0  0  0  0  0
   -8.4935   -0.2018    0.0000 C   0  0  0  0  0  0  0  0  0
   -7.7790    0.2107    0.0000 C   0  0  0  0  0  0  0  0  0
   -4.9212    0.2107    0.0000 N   0  0  0  0  0  0  0  0  0
   -4.2067   -0.2018    0.0000 C   0  0  0  0  0  0  0  0  0
   -3.4922    0.2107    0.0000 C   0  0  0  0  0  0  0  0  0
   -2.7777   -0.2018    0.0000 C   0  0  0  0  0  0  0  0  0
   -2.0633    0.2107    0.0000 C   0  0  0  0  0  0  0  0  0
   -1.3488   -0.2018    0.0000 N   0  0  0  0  0  0  0  0  0
   -0.6343    0.2107    0.0000 C   0  0  0  0  0  0  0  0  0
    0.0801   -0.2018    0.0000 C   0  0  0  0  0  0  0  0  0
    0.0801   -1.0268    0.0000 N   0  0  0  0  0  0  0  0  0
   -0.6343   -1.4393    0.0000 C   0  0  0  0  0  0  0  0  0
   -1.3488   -1.0268    0.0000 C   0  0  0  0  0  0  0  0  0
    0.7946   -1.4393    0.0000 C   0  0  0  0  0  0  0  0  0
    1.5091   -1.0268    0.0000 N   0  0  0  0  0  0  0  0  0
    2.2236   -1.4393    0.0000 C   0  0  0  0  0  0  0  0  0
    2.2236   -2.2643    0.0000 C   0  0  0  0  0  0  0  0  0
    1.5091   -2.6768    0.0000 C   0  0  0  0  0  0  0  0  0
    0.7946   -2.2643    0.0000 N   0  0  0  0  0  0  0  0  0
   -4.9212    1.0357    0.0000 C   0  0  0  0  0  0  0  0  0
  1  2  1  0  0  0  0
  1  6  1  0  0  0  0
  2  3  1  0  0  0  0
  3  4  2  0  0  0  0
  3 11  1  0  0  0  0
  4  5  1  0  0  0  0
  5  6  4  0  0  0  0
  5 10  4  0  0  0  0
  6  7  4  0  0  0  0
  7  8  4  0  0  0  0
  8  9  4  0  0  0  0
  9 10  4  0  0  0  0
 11 12  1  0  0  0  0
 11 28  1  0  0  0  0
 12 13  1  0  0  0  0
 13 14  1  0  0  0  0
 14 15  1  0  0  0  0
 15 16  1  0  0  0  0
 16 17  1  0  0  0  0
 16 21  1  0  0  0  0
 17 18  1  0  0  0  0
 18 19  1  0  0  0  0
 19 20  1  0  0  0  0
 19 22  1  0  0  0  0
 20 21  1  0  0  0  0
 22 23  4  0  0  0  0
 22 27  4  0  0  0  0
 23 24  4  0  0  0  0
 24 25  4  0  0  0  0
 25 26  4  0  0  0  0
 26 27  4  0  0  0  0
M  END
>  <Name_Molregno>
126559

>  <DOPAMINE D4>
6.25

$$$$
126560
  Marvin  02231216192D 0   1.00000     0.00000     0

 28 31  0  0  0  0  0  0  0  0999 V2000
   -1.1639    3.2374    0.0000 O   0  0  0  0  0  0  0  0  0
   -1.8784    2.8249    0.0000 C   0  0  0  0  0  0  0  0  0
   -1.8784    1.9999    0.0000 C   0  0  0  0  0  0  0  0  0
   -1.1639    1.5874    0.0000 N   0  0  0  0  0  0  0  0  0
   -0.4495    1.9999    0.0000 C   0  0  0  0  0  0  0  0  0
   -0.4495    2.8249    0.0000 C   0  0  0  0  0  0  0  0  0
    0.2650    3.2374    0.0000 C   0  0  0  0  0  0  0  0  0
    0.9795    2.8249    0.0000 C   0  0  0  0  0  0  0  0  0
    0.9795    1.9999    0.0000 C   0  0  0  0  0  0  0  0  0
    0.2650    1.5874    0.0000 C   0  0  0  0  0  0  0  0  0
   -2.5929    1.5874    0.0000 N   0  0  0  0  0  0  0  0  0
   -2.5929    0.7624    0.0000 C   0  0  0  0  0  0  0  0  0
   -3.3074    0.3499    0.0000 C   0  0  0  0  0  0  0  0  0
   -3.3074   -0.4751    0.0000 C   0  0  0  0  0  0  0  0  0
   -4.0218   -0.8876    0.0000 N   0  0  0  0  0  0  0  0  0
   -4.0218   -1.7126    0.0000 C   0  0  0  0  0  0  0  0  0
   -4.7363   -2.1251    0.0000 C   0  0  0  0  0  0  0  0  0
   -5.4508   -1.7126    0.0000 N   0  0  0  0  0  0  0  0  0
   -5.4508   -0.8876    0.0000 C   0  0  0  0  0  0  0  0  0
   -4.7363   -0.4751    0.0000 C   0  0  0  0  0  0  0  0  0
   -6.1652   -2.1251    0.0000 C   0  0  0  0  0  0  0  0  0
   -6.1652   -2.9501    0.0000 C   0  0  0  0  0  0  0  0  0
   -6.8797   -3.3626    0.0000 C   0  0  0  0  0  0  0  0  0
   -7.5942   -2.9501    0.0000 C   0  0  0  0  0  0  0  0  0
   -7.5942   -2.1251    0.0000 C   0  0  0  0  0  0  0  0  0
   -6.8797   -1.7126    0.0000 C   0  0  0  0  0  0  0  0  0
   -6.8797   -0.8876    0.0000 O   0  0  0  0  0  0  0  0  0
   -7.5942   -0.4751    0.0000 C   0  0  0  0  0  0  0  0  0
  1  2  1  0  0  0  0
  1  6  1  0  0  0  0
  2  3  1  0  0  0  0
  3  4  2  0  0  0  0
  3 11  1  0  0  0  0
  4  5  1  0  0  0  0
  5  6  4  0  0  0  0
  5 10  4  0  0  0  0
  6  7  4  0  0  0  0
  7  8  4  0  0  0  0
  8  9  4  0  0  0  0
  9 10  4  0  0  0  0
 11 12  1  0  0  0  0
 12 13  1  0  0  0  0
 13 14  1  0  0  0  0
 14 15  1  0  0  0  0
 15 16  1  0  0  0  0
 15 20  1  0  0  0  0
 16 17  1  0  0  0  0
 17 18  1  0  0  0  0
 18 19  1  0  0  0  0
 18 21  1  0  0  0  0
 19 20  1  0  0  0  0
 21 22  4  0  0  0  0
 21 26  4  0  0  0  0
 22 23  4  0  0  0  0
 23 24  4  0  0  0  0
 24 25  4  0  0  0  0
 25 26  4  0  0  0  0
 26 27  1  0  0  0  0
 27 28  1  0  0  0  0
M  END
>  <Name_Molregno>
126560

>  <DOPAMINE D2>
6.55

>  <DOPAMINE D3>
6

>  <DOPAMINE D4>
8.52

$$$$
136188
  Marvin  02231216192D 0   1.00000     0.00000     0

 24 27  0  0  1  0  0  0  0  0999 V2000
    1.0036   -0.3723    0.0000 O   0  0  0  0  0  0  0  0  0
    0.7486   -1.1569    0.0000 C   0  0  0  0  0  0  0  0  0
   -0.0764   -1.1569    0.0000 C   0  0  0  0  0  0  0  0  0
   -0.3313   -0.3723    0.0000 N   0  0  0  0  0  0  0  0  0
    0.3361    0.1126    0.0000 C   0  0  0  0  0  0  0  0  0
    0.3361    0.9376    0.0000 C   0  0  0  0  0  0  0  0  0
   -0.3783    1.3501    0.0000 C   0  0  0  0  0  0  0  0  0
   -0.3783    2.1751    0.0000 C   0  0  0  0  0  0  0  0  0
    0.3361    2.5876    0.0000 C   0  0  0  0  0  0  0  0  0
    1.0506    2.1751    0.0000 C   0  0  0  0  0  0  0  0  0
    1.0506    1.3501    0.0000 C   0  0  0  0  0  0  0  0  0
   -0.5613   -1.8244    0.0000 C   0  0  0  0  0  0  0  0  0
   -1.3818   -1.7381    0.0000 N   0  0  0  0  0  0  0  0  0
   -1.8667   -2.4056    0.0000 C   0  0  0  0  0  0  0  0  0
   -2.6872   -2.3193    0.0000 C   0  0  0  0  0  0  0  0  0
   -3.0227   -1.5657    0.0000 N   0  0  0  0  0  0  0  0  0
   -2.5378   -0.8982    0.0000 C   0  0  0  0  0  0  0  0  0
   -1.7173   -0.9845    0.0000 C   0  0  0  0  0  0  0  0  0
   -3.8432   -1.4794    0.0000 C   0  0  0  0  0  0  0  0  0
   -4.3281   -2.1469    0.0000 C   0  0  0  0  0  0  0  0  0
   -5.1486   -2.0606    0.0000 C   0  0  0  0  0  0  0  0  0
   -5.4842   -1.3070    0.0000 C   0  0  0  0  0  0  0  0  0
   -4.9992   -0.6395    0.0000 C   0  0  0  0  0  0  0  0  0
   -4.1788   -0.7257    0.0000 C   0  0  0  0  0  0  0  0  0
  1  2  1  0  0  0  0
  1  5  1  0  0  0  0
  2  3  1  0  0  0  0
  3  4  1  0  0  0  0
  3 12  1  0  0  0  0
  4  5  2  0  0  0  0
  5  6  1  0  0  0  0
  6  7  4  0  0  0  0
  6 11  4  0  0  0  0
  7  8  4  0  0  0  0
  8  9  4  0  0  0  0
  9 10  4  0  0  0  0
 10 11  4  0  0  0  0
 12 13  1  0  0  0  0
 13 14  1  0  0  0  0
 13 18  1  0  0  0  0
 14 15  1  0  0  0  0
 15 16  1  0  0  0  0
 16 17  1  0  0  0  0
 16 19  1  0  0  0  0
 17 18  1  0  0  0  0
 19 20  4  0  0  0  0
 19 24  4  0  0  0  0
 20 21  4  0  0  0  0
 21 22  4  0  0  0  0
 22 23  4  0  0  0  0
 23 24  4  0  0  0  0
M  END
>  <Name_Molregno>
136188

>  <DOPAMINE D2>
6.09

>  <DOPAMINE D3>
5.82

>  <DOPAMINE D4>
6.43

$$$$
136746
  Marvin  02231216192D 0   1.00000     0.00000     0

 24 27  0  0  1  0  0  0  0  0999 V2000
    1.0036   -0.3723    0.0000 S   0  0  0  0  0  0  0  0  0
    0.7486   -1.1569    0.0000 C   0  0  0  0  0  0  0  0  0
   -0.0764   -1.1569    0.0000 C   0  0  0  0  0  0  0  0  0
   -0.3313   -0.3723    0.0000 N   0  0  0  0  0  0  0  0  0
    0.3361    0.1126    0.0000 C   0  0  0  0  0  0  0  0  0
    0.3361    0.9376    0.0000 C   0  0  0  0  0  0  0  0  0
   -0.3783    1.3501    0.0000 C   0  0  0  0  0  0  0  0  0
   -0.3783    2.1751    0.0000 C   0  0  0  0  0  0  0  0  0
    0.3361    2.5876    0.0000 C   0  0  0  0  0  0  0  0  0
    1.0506    2.1751    0.0000 C   0  0  0  0  0  0  0  0  0
    1.0506    1.3501    0.0000 C   0  0  0  0  0  0  0  0  0
   -0.5613   -1.8244    0.0000 C   0  0  0  0  0  0  0  0  0
   -1.3818   -1.7381    0.0000 N   0  0  0  0  0  0  0  0  0
   -1.8667   -2.4056    0.0000 C   0  0  0  0  0  0  0  0  0
   -2.6872   -2.3193    0.0000 C   0  0  0  0  0  0  0  0  0
   -3.0227   -1.5657    0.0000 N   0  0  0  0  0  0  0  0  0
   -2.5378   -0.8982    0.0000 C   0  0  0  0  0  0  0  0  0
   -1.7173   -0.9845    0.0000 C   0  0  0  0  0  0  0  0  0
   -3.8432   -1.4794    0.0000 C   0  0  0  0  0  0  0  0  0
   -4.3281   -2.1469    0.0000 C   0  0  0  0  0  0  0  0  0
   -5.1486   -2.0606    0.0000 C   0  0  0  0  0  0  0  0  0
   -5.4842   -1.3070    0.0000 C   0  0  0  0  0  0  0  0  0
   -4.9992   -0.6395    0.0000 C   0  0  0  0  0  0  0  0  0
   -4.1788   -0.7257    0.0000 C   0  0  0  0  0  0  0  0  0
  1  2  1  0  0  0  0
  1  5  1  0  0  0  0
  2  3  1  0  0  0  0
  3  4  1  0  0  0  0
  3 12  1  0  0  0  0
  4  5  2  0  0  0  0
  5  6  1  0  0  0  0
  6  7  4  0  0  0  0
  6 11  4  0  0  0  0
  7  8  4  0  0  0  0
  8  9  4  0  0  0  0
  9 10  4  0  0  0  0
 10 11  4  0  0  0  0
 12 13  1  0  0  0  0
 13 14  1  0  0  0  0
 13 18  1  0  0  0  0
 14 15  1  0  0  0  0
 15 16  1  0  0  0  0
 16 17  1  0  0  0  0
 16 19  1  0  0  0  0
 17 18  1  0  0  0  0
 19 20  4  0  0  0  0
 19 24  4  0  0  0  0
 20 21  4  0  0  0  0
 21 22  4  0  0  0  0
 22 23  4  0  0  0  0
 23 24  4  0  0  0  0
M  END
>  <Name_Molregno>
136746

>  <DOPAMINE D2>
5.97

>  <DOPAMINE D3>
5.92

>  <DOPAMINE D4>
5.83

$$$$
136757
  Marvin  02231216192D 0   1.00000     0.00000     0

 27 30  0  0  1  0  0  0  0  0999 V2000
    7.2937    1.3388    0.0000 Br  0  0  0  0  0  0  0  0  0
    6.5792    0.9263    0.0000 C   0  0  0  0  0  0  0  0  0
    6.5792    0.1013    0.0000 C   0  0  0  0  0  0  0  0  0
    5.8647   -0.3112    0.0000 C   0  0  0  0  0  0  0  0  0
    5.8647   -1.1362    0.0000 C   0  0  0  0  0  0  0  0  0
    6.5322   -1.6211    0.0000 O   0  0  0  0  0  0  0  0  0
    6.2772   -2.4058    0.0000 C   0  0  0  0  0  0  0  0  0
    5.4522   -2.4058    0.0000 C   0  0  0  0  0  0  0  0  0
    5.1973   -1.6211    0.0000 N   0  0  0  0  0  0  0  0  0
    4.9673   -3.0732    0.0000 C   0  0  0  0  0  0  0  0  0
    4.1468   -2.9870    0.0000 N   0  0  0  0  0  0  0  0  0
    3.6619   -3.6544    0.0000 C   0  0  0  0  0  0  0  0  0
    2.8414   -3.5682    0.0000 C   0  0  0  0  0  0  0  0  0
    2.5059   -2.8145    0.0000 N   0  0  0  0  0  0  0  0  0
    2.9908   -2.1471    0.0000 C   0  0  0  0  0  0  0  0  0
    3.8113   -2.2333    0.0000 C   0  0  0  0  0  0  0  0  0
    1.6854   -2.7283    0.0000 C   0  0  0  0  0  0  0  0  0
    1.2005   -3.3957    0.0000 C   0  0  0  0  0  0  0  0  0
    0.3800   -3.3095    0.0000 C   0  0  0  0  0  0  0  0  0
    0.0444   -2.5558    0.0000 C   0  0  0  0  0  0  0  0  0
    0.5294   -1.8884    0.0000 C   0  0  0  0  0  0  0  0  0
    1.3498   -1.9746    0.0000 C   0  0  0  0  0  0  0  0  0
    5.1503    0.1013    0.0000 C   0  0  0  0  0  0  0  0  0
    4.4358   -0.3112    0.0000 O   0  0  0  0  0  0  0  0  0
    3.7213    0.1013    0.0000 C   0  0  0  0  0  0  0  0  0
    5.1503    0.9263    0.0000 C   0  0  0  0  0  0  0  0  0
    5.8647    1.3388    0.0000 C   0  0  0  0  0  0  0  0  0
  1  2  1  0  0  0  0
  2  3  4  0  0  0  0
  2 27  4  0  0  0  0
  3  4  4  0  0  0  0
  4  5  1  0  0  0  0
  4 23  4  0  0  0  0
  5  6  1  0  0  0  0
  5  9  2  0  0  0  0
  6  7  1  0  0  0  0
  7  8  1  0  0  0  0
  8  9  1  0  0  0  0
  8 10  1  0  0  0  0
 10 11  1  0  0  0  0
 11 12  1  0  0  0  0
 11 16  1  0  0  0  0
 12 13  1  0  0  0  0
 13 14  1  0  0  0  0
 14 15  1  0  0  0  0
 14 17  1  0  0  0  0
 15 16  1  0  0  0  0
 17 18  4  0  0  0  0
 17 22  4  0  0  0  0
 18 19  4  0  0  0  0
 19 20  4  0  0  0  0
 20 21  4  0  0  0  0
 21 22  4  0  0  0  0
 23 24  1  0  0  0  0
 23 26  4  0  0  0  0
 24 25  1  0  0  0  0
 26 27  4  0  0  0  0
M  END
>  <Name_Molregno>
136757

>  <DOPAMINE D2>
6.27

>  <DOPAMINE D3>
5.64

>  <DOPAMINE D4>
6.11

$$$$
136759
  Marvin  02231216192D 0   1.00000     0.00000     0

 25 28  0  0  1  0  0  0  0  0999 V2000
    4.8908    0.0309    0.0000 O   0  0  0  0  0  0  0  0  0
    4.6359   -0.7537    0.0000 C   0  0  0  0  0  0  0  0  0
    5.1208   -1.4211    0.0000 C   0  0  0  0  0  0  0  0  0
    3.8109   -0.7537    0.0000 C   0  0  0  0  0  0  0  0  0
    3.5559    0.0309    0.0000 N   0  0  0  0  0  0  0  0  0
    4.2234    0.5159    0.0000 C   0  0  0  0  0  0  0  0  0
    4.2234    1.3409    0.0000 C   0  0  0  0  0  0  0  0  0
    3.5089    1.7534    0.0000 C   0  0  0  0  0  0  0  0  0
    3.5089    2.5784    0.0000 C   0  0  0  0  0  0  0  0  0
    4.2234    2.9909    0.0000 C   0  0  0  0  0  0  0  0  0
    4.9378    2.5784    0.0000 C   0  0  0  0  0  0  0  0  0
    4.9378    1.7534    0.0000 C   0  0  0  0  0  0  0  0  0
    3.3260   -1.4211    0.0000 C   0  0  0  0  0  0  0  0  0
    2.5055   -1.3349    0.0000 N   0  0  0  0  0  0  0  0  0
    2.0206   -2.0023    0.0000 C   0  0  0  0  0  0  0  0  0
    1.2001   -1.9161    0.0000 C   0  0  0  0  0  0  0  0  0
    0.8645   -1.1624    0.0000 N   0  0  0  0  0  0  0  0  0
    1.3494   -0.4950    0.0000 C   0  0  0  0  0  0  0  0  0
    2.1699   -0.5812    0.0000 C   0  0  0  0  0  0  0  0  0
    0.0440   -1.0762    0.0000 C   0  0  0  0  0  0  0  0  0
   -0.4409   -1.7436    0.0000 C   0  0  0  0  0  0  0  0  0
   -1.2614   -1.6574    0.0000 C   0  0  0  0  0  0  0  0  0
   -1.5969   -0.9037    0.0000 C   0  0  0  0  0  0  0  0  0
   -1.1120   -0.2363    0.0000 C   0  0  0  0  0  0  0  0  0
   -0.2915   -0.3225    0.0000 C   0  0  0  0  0  0  0  0  0
  1  2  1  0  0  0  0
  1  6  1  0  0  0  0
  2  3  1  0  0  0  0
  2  4  1  0  0  0  0
  4  5  1  0  0  0  0
  4 13  1  0  0  0  0
  5  6  2  0  0  0  0
  6  7  1  0  0  0  0
  7  8  4  0  0  0  0
  7 12  4  0  0  0  0
  8  9  4  0  0  0  0
  9 10  4  0  0  0  0
 10 11  4  0  0  0  0
 11 12  4  0  0  0  0
 13 14  1  0  0  0  0
 14 15  1  0  0  0  0
 14 19  1  0  0  0  0
 15 16  1  0  0  0  0
 16 17  1  0  0  0  0
 17 18  1  0  0  0  0
 17 20  1  0  0  0  0
 18 19  1  0  0  0  0
 20 21  4  0  0  0  0
 20 25  4  0  0  0  0
 21 22  4  0  0  0  0
 22 23  4  0  0  0  0
 23 24  4  0  0  0  0
 24 25  4  0  0  0  0
M  END
>  <Name_Molregno>
136759

>  <DOPAMINE D2>
5.95

>  <DOPAMINE D3>
5.86

>  <DOPAMINE D4>
6.26

$$$$
136761
  Marvin  02231216192D 0   1.00000     0.00000     0

 28 31  0  0  1  0  0  0  0  0999 V2000
    4.6386    0.5117    0.0000 Br  0  0  0  0  0  0  0  0  0
    3.9241    0.0992    0.0000 C   0  0  0  0  0  0  0  0  0
    3.9241   -0.7258    0.0000 C   0  0  0  0  0  0  0  0  0
    3.2096   -1.1383    0.0000 C   0  0  0  0  0  0  0  0  0
    3.2096   -1.9633    0.0000 C   0  0  0  0  0  0  0  0  0
    3.8771   -2.4482    0.0000 O   0  0  0  0  0  0  0  0  0
    3.6221   -3.2328    0.0000 C   0  0  0  0  0  0  0  0  0
    4.1070   -3.9003    0.0000 C   0  0  0  0  0  0  0  0  0
    2.7971   -3.2328    0.0000 C   0  0  0  0  0  0  0  0  0
    2.5422   -2.4482    0.0000 N   0  0  0  0  0  0  0  0  0
    2.3122   -3.9003    0.0000 C   0  0  0  0  0  0  0  0  0
    1.4917   -3.8140    0.0000 N   0  0  0  0  0  0  0  0  0
    1.0068   -4.4815    0.0000 C   0  0  0  0  0  0  0  0  0
    0.1863   -4.3952    0.0000 C   0  0  0  0  0  0  0  0  0
   -0.1492   -3.6416    0.0000 N   0  0  0  0  0  0  0  0  0
    0.3357   -2.9741    0.0000 C   0  0  0  0  0  0  0  0  0
    1.1562   -3.0604    0.0000 C   0  0  0  0  0  0  0  0  0
   -0.9697   -3.5553    0.0000 C   0  0  0  0  0  0  0  0  0
   -1.4547   -4.2228    0.0000 C   0  0  0  0  0  0  0  0  0
   -2.2751   -4.1365    0.0000 C   0  0  0  0  0  0  0  0  0
   -2.6107   -3.3829    0.0000 C   0  0  0  0  0  0  0  0  0
   -2.1258   -2.7154    0.0000 C   0  0  0  0  0  0  0  0  0
   -1.3053   -2.8017    0.0000 C   0  0  0  0  0  0  0  0  0
    2.4951   -0.7258    0.0000 C   0  0  0  0  0  0  0  0  0
    1.7807   -1.1383    0.0000 O   0  0  0  0  0  0  0  0  0
    1.0662   -0.7258    0.0000 C   0  0  0  0  0  0  0  0  0
    2.4951    0.0992    0.0000 C   0  0  0  0  0  0  0  0  0
    3.2096    0.5117    0.0000 C   0  0  0  0  0  0  0  0  0
  1  2  1  0  0  0  0
  2  3  4  0  0  0  0
  2 28  4  0  0  0  0
  3  4  4  0  0  0  0
  4  5  1  0  0  0  0
  4 24  4  0  0  0  0
  5  6  1  0  0  0  0
  5 10  2  0  0  0  0
  6  7  1  0  0  0  0
  7  8  1  0  0  0  0
  7  9  1  0  0  0  0
  9 10  1  0  0  0  0
  9 11  1  0  0  0  0
 11 12  1  0  0  0  0
 12 13  1  0  0  0  0
 12 17  1  0  0  0  0
 13 14  1  0  0  0  0
 14 15  1  0  0  0  0
 15 16  1  0  0  0  0
 15 18  1  0  0  0  0
 16 17  1  0  0  0  0
 18 19  4  0  0  0  0
 18 23  4  0  0  0  0
 19 20  4  0  0  0  0
 20 21  4  0  0  0  0
 21 22  4  0  0  0  0
 22 23  4  0  0  0  0
 24 25  1  0  0  0  0
 24 27  4  0  0  0  0
 25 26  1  0  0  0  0
 27 28  4  0  0  0  0
M  END
>  <Name_Molregno>
136761

>  <DOPAMINE D2>
5.12

>  <DOPAMINE D3>
5.3

>  <DOPAMINE D4>
6.01

$$$$
140909
  Marvin  02231216192D 0   1.00000     0.00000     0

 20 22  0  0  0  0  0  0  0  0999 V2000
   -0.0237   -0.8788    0.0000 O   0  0  0  0  0  0  0  0  0
    0.6907   -0.4663    0.0000 C   0  0  0  0  0  0  0  0  0
    1.4052   -0.8788    0.0000 C   0  0  0  0  0  0  0  0  0
    2.1197   -0.4663    0.0000 N   0  0  0  0  0  0  0  0  0
    2.8342   -0.8788    0.0000 C   0  0  0  0  0  0  0  0  0
    3.5486   -0.4663    0.0000 C   0  0  0  0  0  0  0  0  0
    3.5486    0.3587    0.0000 C   0  0  0  0  0  0  0  0  0
    4.2631    0.7712    0.0000 C   0  0  0  0  0  0  0  0  0
    4.9776    0.3587    0.0000 C   0  0  0  0  0  0  0  0  0
    4.9776   -0.4663    0.0000 C   0  0  0  0  0  0  0  0  0
    4.2631   -0.8788    0.0000 C   0  0  0  0  0  0  0  0  0
   -0.7382   -0.4663    0.0000 C   0  0  0  0  0  0  0  0  0
   -1.4527   -0.8788    0.0000 C   0  0  0  0  0  0  0  0  0
   -1.6242   -1.6858    0.0000 N   0  0  0  0  0  0  0  0  0
   -2.4447   -1.7720    0.0000 C   0  0  0  0  0  0  0  0  0
   -2.7802   -1.0183    0.0000 N   0  0  0  0  0  0  0  0  0
   -2.1671   -0.4663    0.0000 C   0  0  0  0  0  0  0  0  0
   -2.1671    0.3587    0.0000 C   0  0  0  0  0  0  0  0  0
   -1.4527    0.7712    0.0000 C   0  0  0  0  0  0  0  0  0
   -0.7382    0.3587    0.0000 C   0  0  0  0  0  0  0  0  0
  1  2  1  0  0  0  0
  1 12  1  0  0  0  0
  2  3  1  0  0  0  0
  3  4  1  0  0  0  0
  4  5  1  0  0  0  0
  5  6  1  0  0  0  0
  6  7  4  0  0  0  0
  6 11  4  0  0  0  0
  7  8  4  0  0  0  0
  8  9  4  0  0  0  0
  9 10  4  0  0  0  0
 10 11  4  0  0  0  0
 12 13  4  0  0  0  0
 12 20  4  0  0  0  0
 13 14  4  0  0  0  0
 13 17  4  0  0  0  0
 14 15  4  0  0  0  0
 15 16  4  0  0  0  0
 16 17  4  0  0  0  0
 17 18  4  0  0  0  0
 18 19  4  0  0  0  0
 19 20  4  0  0  0  0
M  STY  1   1 DAT
M  SAL   1  1  16
M  SDT   1 MRV_IMPLICIT_H                                        
M  SDD   1     0.0000    0.0000    DR    ALL  0       0  
M  SED   1 IMPL_H1
M  END
>  <Name_Molregno>
140909

>  <DOPAMINE D2>
7.07

>  <DOPAMINE D3>
7.17

>  <DOPAMINE D4>
7.29

$$$$
141006
  Marvin  02231216192D 0   1.00000     0.00000     0

 20 22  0  0  0  0  0  0  0  0999 V2000
   -0.0237   -0.0097    0.0000 O   0  0  0  0  0  0  0  0  0
    0.6907    0.4028    0.0000 C   0  0  0  0  0  0  0  0  0
    1.4052   -0.0097    0.0000 C   0  0  0  0  0  0  0  0  0
    2.1197    0.4028    0.0000 N   0  0  0  0  0  0  0  0  0
    2.8342   -0.0097    0.0000 C   0  0  0  0  0  0  0  0  0
    3.5486    0.4028    0.0000 C   0  0  0  0  0  0  0  0  0
    3.5486    1.2278    0.0000 C   0  0  0  0  0  0  0  0  0
    4.2631    1.6403    0.0000 C   0  0  0  0  0  0  0  0  0
    4.9776    1.2278    0.0000 C   0  0  0  0  0  0  0  0  0
    4.9776    0.4028    0.0000 C   0  0  0  0  0  0  0  0  0
    4.2631   -0.0097    0.0000 C   0  0  0  0  0  0  0  0  0
   -0.7382    0.4028    0.0000 C   0  0  0  0  0  0  0  0  0
   -1.4527   -0.0097    0.0000 C   0  0  0  0  0  0  0  0  0
   -2.1671    0.4028    0.0000 C   0  0  0  0  0  0  0  0  0
   -2.7802   -0.1493    0.0000 N   0  0  0  0  0  0  0  0  0
   -2.4447   -0.9029    0.0000 N   0  0  0  0  0  0  0  0  0
   -1.6242   -0.8167    0.0000 C   0  0  0  0  0  0  0  0  0
   -2.1671    1.2278    0.0000 C   0  0  0  0  0  0  0  0  0
   -1.4527    1.6403    0.0000 C   0  0  0  0  0  0  0  0  0
   -0.7382    1.2278    0.0000 C   0  0  0  0  0  0  0  0  0
  1  2  1  0  0  0  0
  1 12  1  0  0  0  0
  2  3  1  0  0  0  0
  3  4  1  0  0  0  0
  4  5  1  0  0  0  0
  5  6  1  0  0  0  0
  6  7  4  0  0  0  0
  6 11  4  0  0  0  0
  7  8  4  0  0  0  0
  8  9  4  0  0  0  0
  9 10  4  0  0  0  0
 10 11  4  0  0  0  0
 12 13  4  0  0  0  0
 12 20  4  0  0  0  0
 13 14  4  0  0  0  0
 13 17  4  0  0  0  0
 14 15  4  0  0  0  0
 14 18  4  0  0  0  0
 15 16  4  0  0  0  0
 16 17  4  0  0  0  0
 18 19  4  0  0  0  0
 19 20  4  0  0  0  0
M  STY  1   1 DAT
M  SAL   1  1  15
M  SDT   1 MRV_IMPLICIT_H                                        
M  SDD   1     0.0000    0.0000    DR    ALL  0       0  
M  SED   1 IMPL_H1
M  END
>  <Name_Molregno>
141006

>  <DOPAMINE D2>
7.1

>  <DOPAMINE D3>
8.06

>  <DOPAMINE D4>
6.5

$$$$
141007
  Marvin  02231216192D 0   1.00000     0.00000     0

 24 26  0  0  0  0  0  0  0  0999 V2000
   -6.4931    1.7661    0.0000 F   0  0  0  0  0  0  0  0  0
   -6.0806    1.0517    0.0000 C   0  0  0  0  0  0  0  0  0
   -6.7951    0.6392    0.0000 F   0  0  0  0  0  0  0  0  0
   -5.3661    1.4642    0.0000 F   0  0  0  0  0  0  0  0  0
   -5.6681    0.3372    0.0000 C   0  0  0  0  0  0  0  0  0
   -6.0036   -0.4165    0.0000 N   0  0  0  0  0  0  0  0  0
   -5.3905   -0.9685    0.0000 C   0  0  0  0  0  0  0  0  0
   -4.6761   -0.5560    0.0000 C   0  0  0  0  0  0  0  0  0
   -4.8476    0.2510    0.0000 N   0  0  0  0  0  0  0  0  0
   -3.9616   -0.9685    0.0000 C   0  0  0  0  0  0  0  0  0
   -3.2471   -0.5560    0.0000 O   0  0  0  0  0  0  0  0  0
   -2.5327   -0.9685    0.0000 C   0  0  0  0  0  0  0  0  0
   -1.8182   -0.5560    0.0000 C   0  0  0  0  0  0  0  0  0
   -1.1037   -0.9685    0.0000 N   0  0  0  0  0  0  0  0  0
   -0.3892   -0.5560    0.0000 C   0  0  0  0  0  0  0  0  0
    0.3252   -0.9685    0.0000 C   0  0  0  0  0  0  0  0  0
    1.0397   -0.5560    0.0000 C   0  0  0  0  0  0  0  0  0
    1.7542   -0.9685    0.0000 C   0  0  0  0  0  0  0  0  0
    1.7542   -1.7935    0.0000 C   0  0  0  0  0  0  0  0  0
    1.0397   -2.2060    0.0000 C   0  0  0  0  0  0  0  0  0
    0.3252   -1.7935    0.0000 C   0  0  0  0  0  0  0  0  0
   -3.9616   -1.7935    0.0000 C   0  0  0  0  0  0  0  0  0
   -4.6761   -2.2060    0.0000 C   0  0  0  0  0  0  0  0  0
   -5.3905   -1.7935    0.0000 C   0  0  0  0  0  0  0  0  0
  1  2  1  0  0  0  0
  2  3  1  0  0  0  0
  2  4  1  0  0  0  0
  2  5  1  0  0  0  0
  5  6  4  0  0  0  0
  5  9  4  0  0  0  0
  6  7  4  0  0  0  0
  7  8  4  0  0  0  0
  7 24  4  0  0  0  0
  8  9  4  0  0  0  0
  8 10  4  0  0  0  0
 10 11  1  0  0  0  0
 10 22  4  0  0  0  0
 11 12  1  0  0  0  0
 12 13  1  0  0  0  0
 13 14  1  0  0  0  0
 14 15  1  0  0  0  0
 15 16  1  0  0  0  0
 16 17  4  0  0  0  0
 16 21  4  0  0  0  0
 17 18  4  0  0  0  0
 18 19  4  0  0  0  0
 19 20  4  0  0  0  0
 20 21  4  0  0  0  0
 22 23  4  0  0  0  0
 23 24  4  0  0  0  0
M  STY  1   1 DAT
M  SAL   1  1   6
M  SDT   1 MRV_IMPLICIT_H                                        
M  SDD   1     0.0000    0.0000    DR    ALL  0       0  
M  SED   1 IMPL_H1
M  END
>  <Name_Molregno>
141007

>  <DOPAMINE D2>
8.76

>  <DOPAMINE D3>
8.94

>  <DOPAMINE D4>
8.51

$$$$
141037
  Marvin  02231216192D 0   1.00000     0.00000     0

 25 27  0  0  0  0  0  0  0  0999 V2000
   -3.1695    0.0642    0.0000 Cl  0  0  0  0  0  0  0  0  0
   -3.1695   -0.7608    0.0000 C   0  0  0  0  0  0  0  0  0
   -2.4550   -1.1733    0.0000 C   0  0  0  0  0  0  0  0  0
   -2.4550   -1.9983    0.0000 C   0  0  0  0  0  0  0  0  0
   -1.7405   -2.4108    0.0000 O   0  0  0  0  0  0  0  0  0
   -1.0261   -1.9983    0.0000 C   0  0  0  0  0  0  0  0  0
   -0.3116   -2.4108    0.0000 C   0  0  0  0  0  0  0  0  0
    0.4029   -1.9983    0.0000 N   0  0  0  0  0  0  0  0  0
    1.1173   -2.4108    0.0000 C   0  0  0  0  0  0  0  0  0
    1.8318   -1.9983    0.0000 C   0  0  0  0  0  0  0  0  0
    1.8318   -1.1733    0.0000 C   0  0  0  0  0  0  0  0  0
    2.5463   -0.7608    0.0000 C   0  0  0  0  0  0  0  0  0
    3.2608   -1.1733    0.0000 C   0  0  0  0  0  0  0  0  0
    3.2608   -1.9983    0.0000 C   0  0  0  0  0  0  0  0  0
    2.5463   -2.4108    0.0000 C   0  0  0  0  0  0  0  0  0
   -3.1695   -2.4108    0.0000 C   0  0  0  0  0  0  0  0  0
   -3.3410   -3.2178    0.0000 N   0  0  0  0  0  0  0  0  0
   -4.1615   -3.3040    0.0000 C   0  0  0  0  0  0  0  0  0
   -4.4970   -2.5503    0.0000 N   0  0  0  0  0  0  0  0  0
   -3.8840   -1.9983    0.0000 C   0  0  0  0  0  0  0  0  0
   -3.8840   -1.1733    0.0000 C   0  0  0  0  0  0  0  0  0
   -4.5740   -4.0185    0.0000 C   0  0  0  0  0  0  0  0  0
   -4.9865   -4.7329    0.0000 F   0  0  0  0  0  0  0  0  0
   -5.2885   -3.6060    0.0000 F   0  0  0  0  0  0  0  0  0
   -3.8595   -4.4310    0.0000 F   0  0  0  0  0  0  0  0  0
  1  2  1  0  0  0  0
  2  3  4  0  0  0  0
  2 21  4  0  0  0  0
  3  4  4  0  0  0  0
  4  5  1  0  0  0  0
  4 16  4  0  0  0  0
  5  6  1  0  0  0  0
  6  7  1  0  0  0  0
  7  8  1  0  0  0  0
  8  9  1  0  0  0  0
  9 10  1  0  0  0  0
 10 11  4  0  0  0  0
 10 15  4  0  0  0  0
 11 12  4  0  0  0  0
 12 13  4  0  0  0  0
 13 14  4  0  0  0  0
 14 15  4  0  0  0  0
 16 17  4  0  0  0  0
 16 20  4  0  0  0  0
 17 18  4  0  0  0  0
 18 19  4  0  0  0  0
 18 22  1  0  0  0  0
 19 20  4  0  0  0  0
 20 21  4  0  0  0  0
 22 23  1  0  0  0  0
 22 24  1  0  0  0  0
 22 25  1  0  0  0  0
M  STY  1   1 DAT
M  SAL   1  1  19
M  SDT   1 MRV_IMPLICIT_H                                        
M  SDD   1     0.0000    0.0000    DR    ALL  0       0  
M  SED   1 IMPL_H1
M  END
>  <Name_Molregno>
141037

>  <DOPAMINE D2>
7.49

>  <DOPAMINE D3>
7.38

>  <DOPAMINE D4>
8.15

$$$$
141043
  Marvin  02231216192D 0   1.00000     0.00000     0

 21 23  0  0  0  0  0  0  0  0999 V2000
   -0.0159   -0.6797    0.0000 O   0  0  0  0  0  0  0  0  0
    0.6986   -0.2672    0.0000 C   0  0  0  0  0  0  0  0  0
    1.4131   -0.6797    0.0000 C   0  0  0  0  0  0  0  0  0
    2.1275   -0.2672    0.0000 N   0  0  0  0  0  0  0  0  0
    2.8420   -0.6797    0.0000 C   0  0  0  0  0  0  0  0  0
    3.5565   -0.2672    0.0000 C   0  0  0  0  0  0  0  0  0
    3.5565    0.5578    0.0000 C   0  0  0  0  0  0  0  0  0
    4.2709    0.9703    0.0000 C   0  0  0  0  0  0  0  0  0
    4.9854    0.5578    0.0000 C   0  0  0  0  0  0  0  0  0
    4.9854   -0.2672    0.0000 C   0  0  0  0  0  0  0  0  0
    4.2709   -0.6797    0.0000 C   0  0  0  0  0  0  0  0  0
   -0.7304   -0.2672    0.0000 C   0  0  0  0  0  0  0  0  0
   -1.4448   -0.6797    0.0000 C   0  0  0  0  0  0  0  0  0
   -1.6164   -1.4867    0.0000 N   0  0  0  0  0  0  0  0  0
   -2.4368   -1.5729    0.0000 C   0  0  0  0  0  0  0  0  0
   -2.7724   -0.8192    0.0000 N   0  0  0  0  0  0  0  0  0
   -2.1593   -0.2672    0.0000 C   0  0  0  0  0  0  0  0  0
   -2.1593    0.5578    0.0000 C   0  0  0  0  0  0  0  0  0
   -1.4448    0.9703    0.0000 C   0  0  0  0  0  0  0  0  0
   -0.7304    0.5578    0.0000 C   0  0  0  0  0  0  0  0  0
   -2.8493   -2.2874    0.0000 C   0  0  0  0  0  0  0  0  0
  1  2  1  0  0  0  0
  1 12  1  0  0  0  0
  2  3  1  0  0  0  0
  3  4  1  0  0  0  0
  4  5  1  0  0  0  0
  5  6  1  0  0  0  0
  6  7  4  0  0  0  0
  6 11  4  0  0  0  0
  7  8  4  0  0  0  0
  8  9  4  0  0  0  0
  9 10  4  0  0  0  0
 10 11  4  0  0  0  0
 12 13  4  0  0  0  0
 12 20  4  0  0  0  0
 13 14  4  0  0  0  0
 13 17  4  0  0  0  0
 14 15  4  0  0  0  0
 15 16  4  0  0  0  0
 15 21  1  0  0  0  0
 16 17  4  0  0  0  0
 17 18  4  0  0  0  0
 18 19  4  0  0  0  0
 19 20  4  0  0  0  0
M  STY  1   1 DAT
M  SAL   1  1  16
M  SDT   1 MRV_IMPLICIT_H                                        
M  SDD   1     0.0000    0.0000    DR    ALL  0       0  
M  SED   1 IMPL_H1
M  END
>  <Name_Molregno>
141043

>  <DOPAMINE D2>
7.82

>  <DOPAMINE D3>
7.02

>  <DOPAMINE D4>
7.21

$$$$
141724
  Marvin  02231216192D 0   1.00000     0.00000     0

 21 23  0  0  0  0  0  0  0  0999 V2000
   -0.0159   -0.6797    0.0000 O   0  0  0  0  0  0  0  0  0
    0.6986   -0.2672    0.0000 C   0  0  0  0  0  0  0  0  0
    1.4131   -0.6797    0.0000 C   0  0  0  0  0  0  0  0  0
    2.1275   -0.2672    0.0000 N   0  0  0  0  0  0  0  0  0
    2.8420   -0.6797    0.0000 C   0  0  0  0  0  0  0  0  0
    3.5565   -0.2672    0.0000 C   0  0  0  0  0  0  0  0  0
    3.5565    0.5578    0.0000 C   0  0  0  0  0  0  0  0  0
    4.2709    0.9703    0.0000 C   0  0  0  0  0  0  0  0  0
    4.9854    0.5578    0.0000 C   0  0  0  0  0  0  0  0  0
    4.9854   -0.2672    0.0000 C   0  0  0  0  0  0  0  0  0
    4.2709   -0.6797    0.0000 C   0  0  0  0  0  0  0  0  0
   -0.7304   -0.2672    0.0000 C   0  0  0  0  0  0  0  0  0
   -1.4448   -0.6797    0.0000 C   0  0  0  0  0  0  0  0  0
   -1.6164   -1.4867    0.0000 N   0  0  0  0  0  0  0  0  0
   -2.4368   -1.5729    0.0000 C   0  0  0  0  0  0  0  0  0
   -2.8493   -2.2874    0.0000 O   0  0  0  0  0  0  0  0  0
   -2.7724   -0.8192    0.0000 N   0  0  0  0  0  0  0  0  0
   -2.1593   -0.2672    0.0000 C   0  0  0  0  0  0  0  0  0
   -2.1593    0.5578    0.0000 C   0  0  0  0  0  0  0  0  0
   -1.4448    0.9703    0.0000 C   0  0  0  0  0  0  0  0  0
   -0.7304    0.5578    0.0000 C   0  0  0  0  0  0  0  0  0
  1  2  1  0  0  0  0
  1 12  1  0  0  0  0
  2  3  1  0  0  0  0
  3  4  1  0  0  0  0
  4  5  1  0  0  0  0
  5  6  1  0  0  0  0
  6  7  4  0  0  0  0
  6 11  4  0  0  0  0
  7  8  4  0  0  0  0
  8  9  4  0  0  0  0
  9 10  4  0  0  0  0
 10 11  4  0  0  0  0
 12 13  4  0  0  0  0
 12 21  4  0  0  0  0
 13 14  4  0  0  0  0
 13 18  4  0  0  0  0
 14 15  4  0  0  0  0
 15 16  1  0  0  0  0
 15 17  4  0  0  0  0
 17 18  4  0  0  0  0
 18 19  4  0  0  0  0
 19 20  4  0  0  0  0
 20 21  4  0  0  0  0
M  STY  1   1 DAT
M  SAL   1  1  17
M  SDT   1 MRV_IMPLICIT_H                                        
M  SDD   1     0.0000    0.0000    DR    ALL  0       0  
M  SED   1 IMPL_H1
M  END
>  <Name_Molregno>
141724

>  <DOPAMINE D2>
8.41

>  <DOPAMINE D3>
8.39

>  <DOPAMINE D4>
8.2

$$$$
141853
  Marvin  02231216192D 0   1.00000     0.00000     0

 21 23  0  0  0  0  0  0  0  0999 V2000
    0.3557    1.3676    0.0000 S   0  0  0  0  0  0  0  0  0
    0.7682    0.6532    0.0000 C   0  0  0  0  0  0  0  0  0
    0.4326   -0.1005    0.0000 N   0  0  0  0  0  0  0  0  0
    1.0457   -0.6526    0.0000 C   0  0  0  0  0  0  0  0  0
    1.7602   -0.2401    0.0000 C   0  0  0  0  0  0  0  0  0
    1.5887    0.5669    0.0000 N   0  0  0  0  0  0  0  0  0
    2.4747   -0.6526    0.0000 C   0  0  0  0  0  0  0  0  0
    3.1891   -0.2401    0.0000 O   0  0  0  0  0  0  0  0  0
    3.9036   -0.6526    0.0000 C   0  0  0  0  0  0  0  0  0
    4.6181   -0.2401    0.0000 C   0  0  0  0  0  0  0  0  0
    5.3325   -0.6526    0.0000 N   0  0  0  0  0  0  0  0  0
    6.0470   -0.2401    0.0000 C   0  0  0  0  0  0  0  0  0
    6.7615   -0.6526    0.0000 C   0  0  0  0  0  0  0  0  0
    7.4760   -0.2401    0.0000 C   0  0  0  0  0  0  0  0  0
    8.1904   -0.6526    0.0000 C   0  0  0  0  0  0  0  0  0
    8.1904   -1.4776    0.0000 C   0  0  0  0  0  0  0  0  0
    7.4760   -1.8901    0.0000 C   0  0  0  0  0  0  0  0  0
    6.7615   -1.4776    0.0000 C   0  0  0  0  0  0  0  0  0
    2.4747   -1.4776    0.0000 C   0  0  0  0  0  0  0  0  0
    1.7602   -1.8901    0.0000 C   0  0  0  0  0  0  0  0  0
    1.0457   -1.4776    0.0000 C   0  0  0  0  0  0  0  0  0
  1  2  1  0  0  0  0
  2  3  4  0  0  0  0
  2  6  4  0  0  0  0
  3  4  4  0  0  0  0
  4  5  4  0  0  0  0
  4 21  4  0  0  0  0
  5  6  4  0  0  0  0
  5  7  4  0  0  0  0
  7  8  1  0  0  0  0
  7 19  4  0  0  0  0
  8  9  1  0  0  0  0
  9 10  1  0  0  0  0
 10 11  1  0  0  0  0
 11 12  1  0  0  0  0
 12 13  1  0  0  0  0
 13 14  4  0  0  0  0
 13 18  4  0  0  0  0
 14 15  4  0  0  0  0
 15 16  4  0  0  0  0
 16 17  4  0  0  0  0
 17 18  4  0  0  0  0
 19 20  4  0  0  0  0
 20 21  4  0  0  0  0
M  STY  1   1 DAT
M  SAL   1  1   3
M  SDT   1 MRV_IMPLICIT_H                                        
M  SDD   1     0.0000    0.0000    DR    ALL  0       0  
M  SED   1 IMPL_H1
M  END
>  <Name_Molregno>
141853

>  <DOPAMINE D2>
8.52

>  <DOPAMINE D3>
8.7

>  <DOPAMINE D4>
8.42

$$$$
141854
  Marvin  02231216192D 0   1.00000     0.00000     0

 22 24  0  0  0  0  0  0  0  0999 V2000
   -2.7688   -0.6677    0.0000 Cl  0  0  0  0  0  0  0  0  0
   -2.7688   -1.4927    0.0000 C   0  0  0  0  0  0  0  0  0
   -2.0543   -1.9052    0.0000 C   0  0  0  0  0  0  0  0  0
   -2.0543   -2.7302    0.0000 C   0  0  0  0  0  0  0  0  0
   -1.3398   -3.1427    0.0000 O   0  0  0  0  0  0  0  0  0
   -0.6253   -2.7302    0.0000 C   0  0  0  0  0  0  0  0  0
    0.0891   -3.1427    0.0000 C   0  0  0  0  0  0  0  0  0
    0.8036   -2.7302    0.0000 N   0  0  0  0  0  0  0  0  0
    1.5181   -3.1427    0.0000 C   0  0  0  0  0  0  0  0  0
    2.2325   -2.7302    0.0000 C   0  0  0  0  0  0  0  0  0
    2.2325   -1.9052    0.0000 C   0  0  0  0  0  0  0  0  0
    2.9470   -1.4927    0.0000 C   0  0  0  0  0  0  0  0  0
    3.6615   -1.9052    0.0000 C   0  0  0  0  0  0  0  0  0
    3.6615   -2.7302    0.0000 C   0  0  0  0  0  0  0  0  0
    2.9470   -3.1427    0.0000 C   0  0  0  0  0  0  0  0  0
   -2.7688   -3.1427    0.0000 C   0  0  0  0  0  0  0  0  0
   -2.9403   -3.9497    0.0000 N   0  0  0  0  0  0  0  0  0
   -3.7608   -4.0359    0.0000 C   0  0  0  0  0  0  0  0  0
   -4.1733   -4.7504    0.0000 O   0  0  0  0  0  0  0  0  0
   -4.0963   -3.2822    0.0000 N   0  0  0  0  0  0  0  0  0
   -3.4832   -2.7302    0.0000 C   0  0  0  0  0  0  0  0  0
   -3.4832   -1.9052    0.0000 C   0  0  0  0  0  0  0  0  0
  1  2  1  0  0  0  0
  2  3  4  0  0  0  0
  2 22  4  0  0  0  0
  3  4  4  0  0  0  0
  4  5  1  0  0  0  0
  4 16  4  0  0  0  0
  5  6  1  0  0  0  0
  6  7  1  0  0  0  0
  7  8  1  0  0  0  0
  8  9  1  0  0  0  0
  9 10  1  0  0  0  0
 10 11  4  0  0  0  0
 10 15  4  0  0  0  0
 11 12  4  0  0  0  0
 12 13  4  0  0  0  0
 13 14  4  0  0  0  0
 14 15  4  0  0  0  0
 16 17  4  0  0  0  0
 16 21  4  0  0  0  0
 17 18  4  0  0  0  0
 18 19  1  0  0  0  0
 18 20  4  0  0  0  0
 20 21  4  0  0  0  0
 21 22  4  0  0  0  0
M  STY  1   1 DAT
M  SAL   1  1  20
M  SDT   1 MRV_IMPLICIT_H                                        
M  SDD   1     0.0000    0.0000    DR    ALL  0       0  
M  SED   1 IMPL_H1
M  END
>  <Name_Molregno>
141854

>  <DOPAMINE D2>
8.59

>  <DOPAMINE D3>
8.13

>  <DOPAMINE D4>
7.8

$$$$
141886
  Marvin  02231216192D 0   1.00000     0.00000     0

 22 24  0  0  0  0  0  0  0  0999 V2000
   -2.7688   -0.6677    0.0000 Cl  0  0  0  0  0  0  0  0  0
   -2.7688   -1.4927    0.0000 C   0  0  0  0  0  0  0  0  0
   -2.0543   -1.9052    0.0000 C   0  0  0  0  0  0  0  0  0
   -2.0543   -2.7302    0.0000 C   0  0  0  0  0  0  0  0  0
   -1.3398   -3.1427    0.0000 O   0  0  0  0  0  0  0  0  0
   -0.6253   -2.7302    0.0000 C   0  0  0  0  0  0  0  0  0
    0.0891   -3.1427    0.0000 C   0  0  0  0  0  0  0  0  0
    0.8036   -2.7302    0.0000 N   0  0  0  0  0  0  0  0  0
    1.5181   -3.1427    0.0000 C   0  0  0  0  0  0  0  0  0
    2.2325   -2.7302    0.0000 C   0  0  0  0  0  0  0  0  0
    2.2325   -1.9052    0.0000 C   0  0  0  0  0  0  0  0  0
    2.9470   -1.4927    0.0000 C   0  0  0  0  0  0  0  0  0
    3.6615   -1.9052    0.0000 C   0  0  0  0  0  0  0  0  0
    3.6615   -2.7302    0.0000 C   0  0  0  0  0  0  0  0  0
    2.9470   -3.1427    0.0000 C   0  0  0  0  0  0  0  0  0
   -2.7688   -3.1427    0.0000 C   0  0  0  0  0  0  0  0  0
   -2.9403   -3.9497    0.0000 N   0  0  0  0  0  0  0  0  0
   -3.7608   -4.0359    0.0000 C   0  0  0  0  0  0  0  0  0
   -4.1733   -4.7504    0.0000 S   0  0  0  0  0  0  0  0  0
   -4.0963   -3.2822    0.0000 N   0  0  0  0  0  0  0  0  0
   -3.4832   -2.7302    0.0000 C   0  0  0  0  0  0  0  0  0
   -3.4832   -1.9052    0.0000 C   0  0  0  0  0  0  0  0  0
  1  2  1  0  0  0  0
  2  3  4  0  0  0  0
  2 22  4  0  0  0  0
  3  4  4  0  0  0  0
  4  5  1  0  0  0  0
  4 16  4  0  0  0  0
  5  6  1  0  0  0  0
  6  7  1  0  0  0  0
  7  8  1  0  0  0  0
  8  9  1  0  0  0  0
  9 10  1  0  0  0  0
 10 11  4  0  0  0  0
 10 15  4  0  0  0  0
 11 12  4  0  0  0  0
 12 13  4  0  0  0  0
 13 14  4  0  0  0  0
 14 15  4  0  0  0  0
 16 17  4  0  0  0  0
 16 21  4  0  0  0  0
 17 18  4  0  0  0  0
 18 19  1  0  0  0  0
 18 20  4  0  0  0  0
 20 21  4  0  0  0  0
 21 22  4  0  0  0  0
M  STY  1   1 DAT
M  SAL   1  1  20
M  SDT   1 MRV_IMPLICIT_H                                        
M  SDD   1     0.0000    0.0000    DR    ALL  0       0  
M  SED   1 IMPL_H1
M  END
>  <Name_Molregno>
141886

>  <DOPAMINE D2>
8.19

>  <DOPAMINE D3>
7.91

>  <DOPAMINE D4>
7.95

$$$$
146092
  Marvin  02231216192D 0   1.00000     0.00000     0

 22 25  0  0  0  0  0  0  0  0999 V2000
   -4.8805   -3.2452    0.0000 N   0  0  0  0  0  0  0  0  0
   -4.0959   -2.9903    0.0000 C   0  0  0  0  0  0  0  0  0
   -4.0959   -2.1653    0.0000 C   0  0  0  0  0  0  0  0  0
   -4.8805   -1.9103    0.0000 N   0  0  0  0  0  0  0  0  0
   -5.3655   -2.5778    0.0000 C   0  0  0  0  0  0  0  0  0
   -3.3815   -1.7528    0.0000 C   0  0  0  0  0  0  0  0  0
   -3.3815   -0.9278    0.0000 N   0  0  0  0  0  0  0  0  0
   -4.0959   -0.5153    0.0000 C   0  0  0  0  0  0  0  0  0
   -4.0959    0.3097    0.0000 C   0  0  0  0  0  0  0  0  0
   -3.3815    0.7222    0.0000 N   0  0  0  0  0  0  0  0  0
   -2.6670    0.3097    0.0000 C   0  0  0  0  0  0  0  0  0
   -2.6670   -0.5153    0.0000 C   0  0  0  0  0  0  0  0  0
   -3.3815    1.5472    0.0000 C   0  0  0  0  0  0  0  0  0
   -2.6670    1.9597    0.0000 C   0  0  0  0  0  0  0  0  0
   -2.6670    2.7847    0.0000 C   0  0  0  0  0  0  0  0  0
   -1.9525    3.1972    0.0000 C   0  0  0  0  0  0  0  0  0
   -1.2380    2.7847    0.0000 C   0  0  0  0  0  0  0  0  0
   -1.2380    1.9597    0.0000 C   0  0  0  0  0  0  0  0  0
   -1.9525    1.5472    0.0000 C   0  0  0  0  0  0  0  0  0
   -2.6670   -2.1653    0.0000 C   0  0  0  0  0  0  0  0  0
   -2.6670   -2.9903    0.0000 C   0  0  0  0  0  0  0  0  0
   -3.3815   -3.4028    0.0000 C   0  0  0  0  0  0  0  0  0
  1  2  4  0  0  0  0
  1  5  4  0  0  0  0
  2  3  4  0  0  0  0
  2 22  4  0  0  0  0
  3  4  4  0  0  0  0
  3  6  4  0  0  0  0
  4  5  4  0  0  0  0
  6  7  1  0  0  0  0
  6 20  4  0  0  0  0
  7  8  1  0  0  0  0
  7 12  1  0  0  0  0
  8  9  1  0  0  0  0
  9 10  1  0  0  0  0
 10 11  1  0  0  0  0
 10 13  1  0  0  0  0
 11 12  1  0  0  0  0
 13 14  1  0  0  0  0
 14 15  4  0  0  0  0
 14 19  4  0  0  0  0
 15 16  4  0  0  0  0
 16 17  4  0  0  0  0
 17 18  4  0  0  0  0
 18 19  4  0  0  0  0
 20 21  4  0  0  0  0
 21 22  4  0  0  0  0
M  STY  1   1 DAT
M  SAL   1  1   1
M  SDT   1 MRV_IMPLICIT_H                                        
M  SDD   1     0.0000    0.0000    DR    ALL  0       0  
M  SED   1 IMPL_H1
M  END
>  <Name_Molregno>
146092

>  <DOPAMINE D2>
6.59

>  <DOPAMINE D3>
6.06

>  <DOPAMINE D4>
7.33

$$$$
146093
  Marvin  02231216192D 0   1.00000     0.00000     0

 26 29  0  0  0  0  0  0  0  0999 V2000
    0.1755   -2.6563    0.0000 F   0  0  0  0  0  0  0  0  0
    1.0005   -2.6563    0.0000 C   0  0  0  0  0  0  0  0  0
    1.0005   -3.4813    0.0000 F   0  0  0  0  0  0  0  0  0
    1.0005   -1.8313    0.0000 F   0  0  0  0  0  0  0  0  0
    1.8255   -2.6563    0.0000 C   0  0  0  0  0  0  0  0  0
    2.3104   -3.3237    0.0000 N   0  0  0  0  0  0  0  0  0
    3.0951   -3.0688    0.0000 C   0  0  0  0  0  0  0  0  0
    3.0951   -2.2438    0.0000 C   0  0  0  0  0  0  0  0  0
    2.3104   -1.9888    0.0000 N   0  0  0  0  0  0  0  0  0
    3.8095   -1.8313    0.0000 C   0  0  0  0  0  0  0  0  0
    3.8095   -1.0063    0.0000 N   0  0  0  0  0  0  0  0  0
    3.0951   -0.5938    0.0000 C   0  0  0  0  0  0  0  0  0
    3.0951    0.2312    0.0000 C   0  0  0  0  0  0  0  0  0
    3.8095    0.6437    0.0000 N   0  0  0  0  0  0  0  0  0
    4.5240    0.2312    0.0000 C   0  0  0  0  0  0  0  0  0
    4.5240   -0.5938    0.0000 C   0  0  0  0  0  0  0  0  0
    3.8095    1.4687    0.0000 C   0  0  0  0  0  0  0  0  0
    4.5240    1.8812    0.0000 C   0  0  0  0  0  0  0  0  0
    4.5240    2.7062    0.0000 C   0  0  0  0  0  0  0  0  0
    5.2385    3.1187    0.0000 C   0  0  0  0  0  0  0  0  0
    5.9529    2.7062    0.0000 C   0  0  0  0  0  0  0  0  0
    5.9529    1.8812    0.0000 C   0  0  0  0  0  0  0  0  0
    5.2385    1.4687    0.0000 C   0  0  0  0  0  0  0  0  0
    4.5240   -2.2438    0.0000 C   0  0  0  0  0  0  0  0  0
    4.5240   -3.0688    0.0000 C   0  0  0  0  0  0  0  0  0
    3.8095   -3.4813    0.0000 C   0  0  0  0  0  0  0  0  0
  1  2  1  0  0  0  0
  2  3  1  0  0  0  0
  2  4  1  0  0  0  0
  2  5  1  0  0  0  0
  5  6  4  0  0  0  0
  5  9  4  0  0  0  0
  6  7  4  0  0  0  0
  7  8  4  0  0  0  0
  7 26  4  0  0  0  0
  8  9  4  0  0  0  0
  8 10  4  0  0  0  0
 10 11  1  0  0  0  0
 10 24  4  0  0  0  0
 11 12  1  0  0  0  0
 11 16  1  0  0  0  0
 12 13  1  0  0  0  0
 13 14  1  0  0  0  0
 14 15  1  0  0  0  0
 14 17  1  0  0  0  0
 15 16  1  0  0  0  0
 17 18  1  0  0  0  0
 18 19  4  0  0  0  0
 18 23  4  0  0  0  0
 19 20  4  0  0  0  0
 20 21  4  0  0  0  0
 21 22  4  0  0  0  0
 22 23  4  0  0  0  0
 24 25  4  0  0  0  0
 25 26  4  0  0  0  0
M  STY  1   1 DAT
M  SAL   1  1   6
M  SDT   1 MRV_IMPLICIT_H                                        
M  SDD   1     0.0000    0.0000    DR    ALL  0       0  
M  SED   1 IMPL_H1
M  END
>  <Name_Molregno>
146093

>  <DOPAMINE D2>
8.39

>  <DOPAMINE D3>
7.83

>  <DOPAMINE D4>
8.54

$$$$
146128
  Marvin  02231216192D 0   1.00000     0.00000     0

 24 27  0  0  0  0  0  0  0  0999 V2000
    0.1337   -2.5417    0.0000 Cl  0  0  0  0  0  0  0  0  0
   -0.5808   -2.9542    0.0000 C   0  0  0  0  0  0  0  0  0
   -0.5808   -3.7792    0.0000 C   0  0  0  0  0  0  0  0  0
   -1.2953   -4.1917    0.0000 C   0  0  0  0  0  0  0  0  0
   -2.0098   -3.7792    0.0000 C   0  0  0  0  0  0  0  0  0
   -2.7944   -4.0341    0.0000 N   0  0  0  0  0  0  0  0  0
   -3.2793   -3.3667    0.0000 C   0  0  0  0  0  0  0  0  0
   -4.1043   -3.3667    0.0000 O   0  0  0  0  0  0  0  0  0
   -2.7944   -2.6992    0.0000 C   0  0  0  0  0  0  0  0  0
   -2.0098   -2.9542    0.0000 C   0  0  0  0  0  0  0  0  0
   -1.2953   -2.5417    0.0000 C   0  0  0  0  0  0  0  0  0
   -1.2953   -1.7167    0.0000 N   0  0  0  0  0  0  0  0  0
   -2.0098   -1.3042    0.0000 C   0  0  0  0  0  0  0  0  0
   -2.0098   -0.4792    0.0000 C   0  0  0  0  0  0  0  0  0
   -1.2953   -0.0667    0.0000 N   0  0  0  0  0  0  0  0  0
   -0.5808   -0.4792    0.0000 C   0  0  0  0  0  0  0  0  0
   -0.5808   -1.3042    0.0000 C   0  0  0  0  0  0  0  0  0
   -1.2953    0.7583    0.0000 C   0  0  0  0  0  0  0  0  0
   -0.5808    1.1708    0.0000 C   0  0  0  0  0  0  0  0  0
   -0.5808    1.9958    0.0000 C   0  0  0  0  0  0  0  0  0
    0.1337    2.4083    0.0000 C   0  0  0  0  0  0  0  0  0
    0.8481    1.9958    0.0000 C   0  0  0  0  0  0  0  0  0
    0.8481    1.1708    0.0000 C   0  0  0  0  0  0  0  0  0
    0.1337    0.7583    0.0000 C   0  0  0  0  0  0  0  0  0
  1  2  1  0  0  0  0
  2  3  4  0  0  0  0
  2 11  4  0  0  0  0
  3  4  4  0  0  0  0
  4  5  4  0  0  0  0
  5  6  1  0  0  0  0
  5 10  4  0  0  0  0
  6  7  1  0  0  0  0
  7  8  2  0  0  0  0
  7  9  1  0  0  0  0
  9 10  1  0  0  0  0
 10 11  4  0  0  0  0
 11 12  1  0  0  0  0
 12 13  1  0  0  0  0
 12 17  1  0  0  0  0
 13 14  1  0  0  0  0
 14 15  1  0  0  0  0
 15 16  1  0  0  0  0
 15 18  1  0  0  0  0
 16 17  1  0  0  0  0
 18 19  1  0  0  0  0
 19 20  4  0  0  0  0
 19 24  4  0  0  0  0
 20 21  4  0  0  0  0
 21 22  4  0  0  0  0
 22 23  4  0  0  0  0
 23 24  4  0  0  0  0
M  END
>  <Name_Molregno>
146128

>  <DOPAMINE D2>
6.27

>  <DOPAMINE D3>
6.23

>  <DOPAMINE D4>
8.06

$$$$
146597
  Marvin  02231216192D 0   1.00000     0.00000     0

 23 26  0  0  0  0  0  0  0  0999 V2000
    0.4639   -3.1071    0.0000 O   0  0  0  0  0  0  0  0  0
    1.2889   -3.1071    0.0000 C   0  0  0  0  0  0  0  0  0
    1.7738   -3.7745    0.0000 N   0  0  0  0  0  0  0  0  0
    2.5585   -3.5196    0.0000 C   0  0  0  0  0  0  0  0  0
    2.5585   -2.6946    0.0000 C   0  0  0  0  0  0  0  0  0
    1.7738   -2.4396    0.0000 C   0  0  0  0  0  0  0  0  0
    3.2729   -2.2821    0.0000 C   0  0  0  0  0  0  0  0  0
    3.2729   -1.4571    0.0000 N   0  0  0  0  0  0  0  0  0
    2.5585   -1.0446    0.0000 C   0  0  0  0  0  0  0  0  0
    2.5585   -0.2196    0.0000 C   0  0  0  0  0  0  0  0  0
    3.2729    0.1929    0.0000 N   0  0  0  0  0  0  0  0  0
    3.9874   -0.2196    0.0000 C   0  0  0  0  0  0  0  0  0
    3.9874   -1.0446    0.0000 C   0  0  0  0  0  0  0  0  0
    3.2729    1.0179    0.0000 C   0  0  0  0  0  0  0  0  0
    3.9874    1.4304    0.0000 C   0  0  0  0  0  0  0  0  0
    3.9874    2.2554    0.0000 C   0  0  0  0  0  0  0  0  0
    4.7019    2.6679    0.0000 C   0  0  0  0  0  0  0  0  0
    5.4163    2.2554    0.0000 C   0  0  0  0  0  0  0  0  0
    5.4163    1.4304    0.0000 C   0  0  0  0  0  0  0  0  0
    4.7019    1.0179    0.0000 C   0  0  0  0  0  0  0  0  0
    3.9874   -2.6946    0.0000 C   0  0  0  0  0  0  0  0  0
    3.9874   -3.5196    0.0000 C   0  0  0  0  0  0  0  0  0
    3.2729   -3.9321    0.0000 C   0  0  0  0  0  0  0  0  0
  1  2  2  0  0  0  0
  2  3  1  0  0  0  0
  2  6  1  0  0  0  0
  3  4  1  0  0  0  0
  4  5  4  0  0  0  0
  4 23  4  0  0  0  0
  5  6  1  0  0  0  0
  5  7  4  0  0  0  0
  7  8  1  0  0  0  0
  7 21  4  0  0  0  0
  8  9  1  0  0  0  0
  8 13  1  0  0  0  0
  9 10  1  0  0  0  0
 10 11  1  0  0  0  0
 11 12  1  0  0  0  0
 11 14  1  0  0  0  0
 12 13  1  0  0  0  0
 14 15  1  0  0  0  0
 15 16  4  0  0  0  0
 15 20  4  0  0  0  0
 16 17  4  0  0  0  0
 17 18  4  0  0  0  0
 18 19  4  0  0  0  0
 19 20  4  0  0  0  0
 21 22  4  0  0  0  0
 22 23  4  0  0  0  0
M  END
>  <Name_Molregno>
146597

>  <DOPAMINE D2>
8.1

>  <DOPAMINE D3>
8.27

>  <DOPAMINE D4>
8.52

$$$$
146638
  Marvin  02231216192D 0   1.00000     0.00000     0

 20 22  0  0  0  0  0  0  0  0999 V2000
    1.6910    3.1208    0.0000 O   0  0  0  0  0  0  0  0  0
    1.6910    2.2958    0.0000 C   0  0  0  0  0  0  0  0  0
    2.4055    1.8833    0.0000 C   0  0  0  0  0  0  0  0  0
    2.4055    1.0583    0.0000 C   0  0  0  0  0  0  0  0  0
    3.1200    0.6458    0.0000 N   0  0  0  0  0  0  0  0  0
    3.8344    1.0583    0.0000 C   0  0  0  0  0  0  0  0  0
    4.5489    0.6458    0.0000 C   0  0  0  0  0  0  0  0  0
    4.5489   -0.1792    0.0000 N   0  0  0  0  0  0  0  0  0
    3.8344   -0.5917    0.0000 C   0  0  0  0  0  0  0  0  0
    3.1200   -0.1792    0.0000 C   0  0  0  0  0  0  0  0  0
    5.2634   -0.5917    0.0000 C   0  0  0  0  0  0  0  0  0
    5.2634   -1.4167    0.0000 C   0  0  0  0  0  0  0  0  0
    5.9778   -1.8292    0.0000 C   0  0  0  0  0  0  0  0  0
    5.9778   -2.6542    0.0000 C   0  0  0  0  0  0  0  0  0
    5.2634   -3.0667    0.0000 C   0  0  0  0  0  0  0  0  0
    4.5489   -2.6542    0.0000 C   0  0  0  0  0  0  0  0  0
    4.5489   -1.8292    0.0000 C   0  0  0  0  0  0  0  0  0
    1.6910    0.6458    0.0000 C   0  0  0  0  0  0  0  0  0
    0.9765    1.0583    0.0000 C   0  0  0  0  0  0  0  0  0
    0.9765    1.8833    0.0000 C   0  0  0  0  0  0  0  0  0
  1  2  1  0  0  0  0
  2  3  4  0  0  0  0
  2 20  4  0  0  0  0
  3  4  4  0  0  0  0
  4  5  1  0  0  0  0
  4 18  4  0  0  0  0
  5  6  1  0  0  0  0
  5 10  1  0  0  0  0
  6  7  1  0  0  0  0
  7  8  1  0  0  0  0
  8  9  1  0  0  0  0
  8 11  1  0  0  0  0
  9 10  1  0  0  0  0
 11 12  1  0  0  0  0
 12 13  4  0  0  0  0
 12 17  4  0  0  0  0
 13 14  4  0  0  0  0
 14 15  4  0  0  0  0
 15 16  4  0  0  0  0
 16 17  4  0  0  0  0
 18 19  4  0  0  0  0
 19 20  4  0  0  0  0
M  END
>  <Name_Molregno>
146638

>  <DOPAMINE D2>
7.43

>  <DOPAMINE D3>
7.54

>  <DOPAMINE D4>
6.4

$$$$
146648
  Marvin  02231216192D 0   1.00000     0.00000     0

 23 26  0  0  0  0  0  0  0  0999 V2000
    3.4432   -3.8297    0.0000 Br  0  0  0  0  0  0  0  0  0
    3.4432   -3.0047    0.0000 C   0  0  0  0  0  0  0  0  0
    2.7287   -2.5922    0.0000 C   0  0  0  0  0  0  0  0  0
    1.9441   -2.8472    0.0000 N   0  0  0  0  0  0  0  0  0
    1.4591   -2.1797    0.0000 C   0  0  0  0  0  0  0  0  0
    1.9441   -1.5123    0.0000 C   0  0  0  0  0  0  0  0  0
    2.7287   -1.7672    0.0000 C   0  0  0  0  0  0  0  0  0
    3.4432   -1.3547    0.0000 C   0  0  0  0  0  0  0  0  0
    3.4432   -0.5297    0.0000 N   0  0  0  0  0  0  0  0  0
    2.7287   -0.1172    0.0000 C   0  0  0  0  0  0  0  0  0
    2.7287    0.7078    0.0000 C   0  0  0  0  0  0  0  0  0
    3.4432    1.1203    0.0000 N   0  0  0  0  0  0  0  0  0
    4.1576    0.7078    0.0000 C   0  0  0  0  0  0  0  0  0
    4.1576   -0.1172    0.0000 C   0  0  0  0  0  0  0  0  0
    3.4432    1.9453    0.0000 C   0  0  0  0  0  0  0  0  0
    4.1576    2.3578    0.0000 C   0  0  0  0  0  0  0  0  0
    4.1576    3.1828    0.0000 C   0  0  0  0  0  0  0  0  0
    4.8721    3.5953    0.0000 C   0  0  0  0  0  0  0  0  0
    5.5866    3.1828    0.0000 C   0  0  0  0  0  0  0  0  0
    5.5866    2.3578    0.0000 C   0  0  0  0  0  0  0  0  0
    4.8721    1.9453    0.0000 C   0  0  0  0  0  0  0  0  0
    4.1576   -1.7672    0.0000 C   0  0  0  0  0  0  0  0  0
    4.1576   -2.5922    0.0000 C   0  0  0  0  0  0  0  0  0
  1  2  1  0  0  0  0
  2  3  4  0  0  0  0
  2 23  4  0  0  0  0
  3  4  4  0  0  0  0
  3  7  4  0  0  0  0
  4  5  4  0  0  0  0
  5  6  4  0  0  0  0
  6  7  4  0  0  0  0
  7  8  4  0  0  0  0
  8  9  1  0  0  0  0
  8 22  4  0  0  0  0
  9 10  1  0  0  0  0
  9 14  1  0  0  0  0
 10 11  1  0  0  0  0
 11 12  1  0  0  0  0
 12 13  1  0  0  0  0
 12 15  1  0  0  0  0
 13 14  1  0  0  0  0
 15 16  1  0  0  0  0
 16 17  4  0  0  0  0
 16 21  4  0  0  0  0
 17 18  4  0  0  0  0
 18 19  4  0  0  0  0
 19 20  4  0  0  0  0
 20 21  4  0  0  0  0
 22 23  4  0  0  0  0
M  STY  1   1 DAT
M  SAL   1  1   4
M  SDT   1 MRV_IMPLICIT_H                                        
M  SDD   1     0.0000    0.0000    DR    ALL  0       0  
M  SED   1 IMPL_H1
M  END
>  <Name_Molregno>
146648

>  <DOPAMINE D2>
7.33

>  <DOPAMINE D3>
7.25

>  <DOPAMINE D4>
8.59

$$$$
146649
  Marvin  02231216192D 0   1.00000     0.00000     0

 22 25  0  0  0  0  0  0  0  0999 V2000
   -4.8805   -3.2452    0.0000 N   0  0  0  0  0  0  0  0  0
   -4.0959   -2.9903    0.0000 C   0  0  0  0  0  0  0  0  0
   -4.0959   -2.1653    0.0000 C   0  0  0  0  0  0  0  0  0
   -4.8805   -1.9103    0.0000 C   0  0  0  0  0  0  0  0  0
   -5.3655   -2.5778    0.0000 C   0  0  0  0  0  0  0  0  0
   -3.3815   -1.7528    0.0000 C   0  0  0  0  0  0  0  0  0
   -3.3815   -0.9278    0.0000 N   0  0  0  0  0  0  0  0  0
   -4.0959   -0.5153    0.0000 C   0  0  0  0  0  0  0  0  0
   -4.0959    0.3097    0.0000 C   0  0  0  0  0  0  0  0  0
   -3.3815    0.7222    0.0000 N   0  0  0  0  0  0  0  0  0
   -2.6670    0.3097    0.0000 C   0  0  0  0  0  0  0  0  0
   -2.6670   -0.5153    0.0000 C   0  0  0  0  0  0  0  0  0
   -3.3815    1.5472    0.0000 C   0  0  0  0  0  0  0  0  0
   -2.6670    1.9597    0.0000 C   0  0  0  0  0  0  0  0  0
   -2.6670    2.7847    0.0000 C   0  0  0  0  0  0  0  0  0
   -1.9525    3.1972    0.0000 C   0  0  0  0  0  0  0  0  0
   -1.2380    2.7847    0.0000 C   0  0  0  0  0  0  0  0  0
   -1.2380    1.9597    0.0000 C   0  0  0  0  0  0  0  0  0
   -1.9525    1.5472    0.0000 C   0  0  0  0  0  0  0  0  0
   -2.6670   -2.1653    0.0000 C   0  0  0  0  0  0  0  0  0
   -2.6670   -2.9903    0.0000 C   0  0  0  0  0  0  0  0  0
   -3.3815   -3.4028    0.0000 C   0  0  0  0  0  0  0  0  0
  1  2  4  0  0  0  0
  1  5  4  0  0  0  0
  2  3  4  0  0  0  0
  2 22  4  0  0  0  0
  3  4  4  0  0  0  0
  3  6  4  0  0  0  0
  4  5  4  0  0  0  0
  6  7  1  0  0  0  0
  6 20  4  0  0  0  0
  7  8  1  0  0  0  0
  7 12  1  0  0  0  0
  8  9  1  0  0  0  0
  9 10  1  0  0  0  0
 10 11  1  0  0  0  0
 10 13  1  0  0  0  0
 11 12  1  0  0  0  0
 13 14  1  0  0  0  0
 14 15  4  0  0  0  0
 14 19  4  0  0  0  0
 15 16  4  0  0  0  0
 16 17  4  0  0  0  0
 17 18  4  0  0  0  0
 18 19  4  0  0  0  0
 20 21  4  0  0  0  0
 21 22  4  0  0  0  0
M  STY  1   1 DAT
M  SAL   1  1   1
M  SDT   1 MRV_IMPLICIT_H                                        
M  SDD   1     0.0000    0.0000    DR    ALL  0       0  
M  SED   1 IMPL_H1
M  END
>  <Name_Molregno>
146649

>  <DOPAMINE D2>
7.28

>  <DOPAMINE D3>
7.45

>  <DOPAMINE D4>
7.83

$$$$
146683
  Marvin  02231216192D 0   1.00000     0.00000     0

 23 26  0  0  0  0  0  0  0  0999 V2000
    0.4639   -3.1071    0.0000 O   0  0  0  0  0  0  0  0  0
    1.2889   -3.1071    0.0000 C   0  0  0  0  0  0  0  0  0
    1.7738   -3.7745    0.0000 N   0  0  0  0  0  0  0  0  0
    2.5585   -3.5196    0.0000 C   0  0  0  0  0  0  0  0  0
    2.5585   -2.6946    0.0000 C   0  0  0  0  0  0  0  0  0
    1.7738   -2.4396    0.0000 N   0  0  0  0  0  0  0  0  0
    3.2729   -2.2821    0.0000 C   0  0  0  0  0  0  0  0  0
    3.2729   -1.4571    0.0000 N   0  0  0  0  0  0  0  0  0
    2.5585   -1.0446    0.0000 C   0  0  0  0  0  0  0  0  0
    2.5585   -0.2196    0.0000 C   0  0  0  0  0  0  0  0  0
    3.2729    0.1929    0.0000 N   0  0  0  0  0  0  0  0  0
    3.9874   -0.2196    0.0000 C   0  0  0  0  0  0  0  0  0
    3.9874   -1.0446    0.0000 C   0  0  0  0  0  0  0  0  0
    3.2729    1.0179    0.0000 C   0  0  0  0  0  0  0  0  0
    3.9874    1.4304    0.0000 C   0  0  0  0  0  0  0  0  0
    3.9874    2.2554    0.0000 C   0  0  0  0  0  0  0  0  0
    4.7019    2.6679    0.0000 C   0  0  0  0  0  0  0  0  0
    5.4163    2.2554    0.0000 C   0  0  0  0  0  0  0  0  0
    5.4163    1.4304    0.0000 C   0  0  0  0  0  0  0  0  0
    4.7019    1.0179    0.0000 C   0  0  0  0  0  0  0  0  0
    3.9874   -2.6946    0.0000 C   0  0  0  0  0  0  0  0  0
    3.9874   -3.5196    0.0000 C   0  0  0  0  0  0  0  0  0
    3.2729   -3.9321    0.0000 C   0  0  0  0  0  0  0  0  0
  1  2  1  0  0  0  0
  2  3  4  0  0  0  0
  2  6  4  0  0  0  0
  3  4  4  0  0  0  0
  4  5  4  0  0  0  0
  4 23  4  0  0  0  0
  5  6  4  0  0  0  0
  5  7  4  0  0  0  0
  7  8  1  0  0  0  0
  7 21  4  0  0  0  0
  8  9  1  0  0  0  0
  8 13  1  0  0  0  0
  9 10  1  0  0  0  0
 10 11  1  0  0  0  0
 11 12  1  0  0  0  0
 11 14  1  0  0  0  0
 12 13  1  0  0  0  0
 14 15  1  0  0  0  0
 15 16  4  0  0  0  0
 15 20  4  0  0  0  0
 16 17  4  0  0  0  0
 17 18  4  0  0  0  0
 18 19  4  0  0  0  0
 19 20  4  0  0  0  0
 21 22  4  0  0  0  0
 22 23  4  0  0  0  0
M  STY  1   1 DAT
M  SAL   1  1   3
M  SDT   1 MRV_IMPLICIT_H                                        
M  SDD   1     0.0000    0.0000    DR    ALL  0       0  
M  SED   1 IMPL_H1
M  END
>  <Name_Molregno>
146683

>  <DOPAMINE D2>
7.06

>  <DOPAMINE D3>
7.25

>  <DOPAMINE D4>
7.84

$$$$
146684
  Marvin  02231216192D 0   1.00000     0.00000     0

 23 26  0  0  0  0  0  0  0  0999 V2000
   -0.0872   -2.5006    0.0000 Cl  0  0  0  0  0  0  0  0  0
   -0.8017   -2.9131    0.0000 C   0  0  0  0  0  0  0  0  0
   -0.8017   -3.7381    0.0000 C   0  0  0  0  0  0  0  0  0
   -1.5162   -4.1506    0.0000 C   0  0  0  0  0  0  0  0  0
   -2.2306   -3.7381    0.0000 C   0  0  0  0  0  0  0  0  0
   -3.0152   -3.9931    0.0000 N   0  0  0  0  0  0  0  0  0
   -3.5002   -3.3256    0.0000 C   0  0  0  0  0  0  0  0  0
   -3.0152   -2.6582    0.0000 C   0  0  0  0  0  0  0  0  0
   -2.2306   -2.9131    0.0000 C   0  0  0  0  0  0  0  0  0
   -1.5162   -2.5006    0.0000 C   0  0  0  0  0  0  0  0  0
   -1.5162   -1.6756    0.0000 N   0  0  0  0  0  0  0  0  0
   -2.2306   -1.2631    0.0000 C   0  0  0  0  0  0  0  0  0
   -2.2306   -0.4381    0.0000 C   0  0  0  0  0  0  0  0  0
   -1.5162   -0.0256    0.0000 N   0  0  0  0  0  0  0  0  0
   -0.8017   -0.4381    0.0000 C   0  0  0  0  0  0  0  0  0
   -0.8017   -1.2631    0.0000 C   0  0  0  0  0  0  0  0  0
   -1.5162    0.7994    0.0000 C   0  0  0  0  0  0  0  0  0
   -0.8017    1.2119    0.0000 C   0  0  0  0  0  0  0  0  0
   -0.8017    2.0369    0.0000 C   0  0  0  0  0  0  0  0  0
   -0.0872    2.4494    0.0000 C   0  0  0  0  0  0  0  0  0
    0.6273    2.0369    0.0000 C   0  0  0  0  0  0  0  0  0
    0.6273    1.2119    0.0000 C   0  0  0  0  0  0  0  0  0
   -0.0872    0.7994    0.0000 C   0  0  0  0  0  0  0  0  0
  1  2  1  0  0  0  0
  2  3  4  0  0  0  0
  2 10  4  0  0  0  0
  3  4  4  0  0  0  0
  4  5  4  0  0  0  0
  5  6  4  0  0  0  0
  5  9  4  0  0  0  0
  6  7  4  0  0  0  0
  7  8  4  0  0  0  0
  8  9  4  0  0  0  0
  9 10  4  0  0  0  0
 10 11  1  0  0  0  0
 11 12  1  0  0  0  0
 11 16  1  0  0  0  0
 12 13  1  0  0  0  0
 13 14  1  0  0  0  0
 14 15  1  0  0  0  0
 14 17  1  0  0  0  0
 15 16  1  0  0  0  0
 17 18  1  0  0  0  0
 18 19  4  0  0  0  0
 18 23  4  0  0  0  0
 19 20  4  0  0  0  0
 20 21  4  0  0  0  0
 21 22  4  0  0  0  0
 22 23  4  0  0  0  0
M  STY  1   1 DAT
M  SAL   1  1   6
M  SDT   1 MRV_IMPLICIT_H                                        
M  SDD   1     0.0000    0.0000    DR    ALL  0       0  
M  SED   1 IMPL_H1
M  END
>  <Name_Molregno>
146684

>  <DOPAMINE D2>
7.09

>  <DOPAMINE D3>
7.02

>  <DOPAMINE D4>
8.77

$$$$
147078
  Marvin  02231216192D 0   1.00000     0.00000     0

 23 26  0  0  0  0  0  0  0  0999 V2000
    8.1024   -2.1804    0.0000 Cl  0  0  0  0  0  0  0  0  0
    7.3879   -1.7679    0.0000 C   0  0  0  0  0  0  0  0  0
    6.6735   -2.1804    0.0000 C   0  0  0  0  0  0  0  0  0
    5.9590   -1.7679    0.0000 C   0  0  0  0  0  0  0  0  0
    5.9590   -0.9429    0.0000 C   0  0  0  0  0  0  0  0  0
    5.2445   -0.5304    0.0000 N   0  0  0  0  0  0  0  0  0
    4.5300   -0.9429    0.0000 C   0  0  0  0  0  0  0  0  0
    3.8156   -0.5304    0.0000 C   0  0  0  0  0  0  0  0  0
    3.8156    0.2946    0.0000 N   0  0  0  0  0  0  0  0  0
    4.5300    0.7071    0.0000 C   0  0  0  0  0  0  0  0  0
    5.2445    0.2946    0.0000 C   0  0  0  0  0  0  0  0  0
    3.1011    0.7071    0.0000 C   0  0  0  0  0  0  0  0  0
    3.1011    1.5321    0.0000 C   0  0  0  0  0  0  0  0  0
    2.3866    1.9446    0.0000 N   0  0  0  0  0  0  0  0  0
    1.6020    1.6897    0.0000 N   0  0  0  0  0  0  0  0  0
    1.1171    2.3571    0.0000 C   0  0  0  0  0  0  0  0  0
    1.6020    3.0246    0.0000 C   0  0  0  0  0  0  0  0  0
    2.3866    2.7696    0.0000 C   0  0  0  0  0  0  0  0  0
    3.1011    3.1821    0.0000 C   0  0  0  0  0  0  0  0  0
    3.8156    2.7696    0.0000 C   0  0  0  0  0  0  0  0  0
    3.8156    1.9446    0.0000 C   0  0  0  0  0  0  0  0  0
    6.6735   -0.5304    0.0000 C   0  0  0  0  0  0  0  0  0
    7.3879   -0.9429    0.0000 C   0  0  0  0  0  0  0  0  0
  1  2  1  0  0  0  0
  2  3  4  0  0  0  0
  2 23  4  0  0  0  0
  3  4  4  0  0  0  0
  4  5  4  0  0  0  0
  5  6  1  0  0  0  0
  5 22  4  0  0  0  0
  6  7  1  0  0  0  0
  6 11  1  0  0  0  0
  7  8  1  0  0  0  0
  8  9  1  0  0  0  0
  9 10  1  0  0  0  0
  9 12  1  0  0  0  0
 10 11  1  0  0  0  0
 12 13  1  0  0  0  0
 13 14  4  0  0  0  0
 13 21  4  0  0  0  0
 14 15  4  0  0  0  0
 14 18  4  0  0  0  0
 15 16  4  0  0  0  0
 16 17  4  0  0  0  0
 17 18  4  0  0  0  0
 18 19  4  0  0  0  0
 19 20  4  0  0  0  0
 20 21  4  0  0  0  0
 22 23  4  0  0  0  0
M  END
>  <Name_Molregno>
147078

>  <DOPAMINE D2>
4.51

>  <DOPAMINE D3>
5

>  <DOPAMINE D4>
5.89

$$$$
150603
  Marvin  02231216192D 0   1.00000     0.00000     0

 23 24  0  0  1  0  0  0  0  0999 V2000
   -3.5726    2.0075    0.0000 S   0  0  0  0  0  0  0  0  0
   -2.8582    1.5950    0.0000 O   0  0  0  0  0  0  0  0  0
   -2.8582    0.7700    0.0000 C   0  0  0  0  0  0  0  0  0
   -2.1437    0.3575    0.0000 C   0  0  0  0  0  0  0  0  0
   -2.1437   -0.4675    0.0000 C   0  0  0  0  0  0  0  0  0
   -2.8582   -0.8800    0.0000 C   0  0  0  0  0  0  0  0  0
   -3.5726   -0.4675    0.0000 C   0  0  0  0  0  0  0  0  0
   -3.5726    0.3575    0.0000 C   0  0  0  0  0  0  0  0  0
   -1.4292   -0.8800    0.0000 C   0  0  0  0  0  0  0  0  0
   -0.7148   -0.4675    0.0000 C   0  0  0  0  0  0  0  0  0
   -0.0003   -0.8800    0.0000 C   0  0  0  0  0  0  0  0  0
   -0.0003   -1.7050    0.0000 C   0  0  0  0  0  0  0  0  0
   -0.7148   -2.1175    0.0000 N   0  0  0  0  0  0  0  0  0
   -1.4292   -1.7050    0.0000 C   0  0  0  0  0  0  0  0  0
   -0.7148   -2.9425    0.0000 C   0  0  0  0  0  0  0  0  0
   -0.0003   -3.3550    0.0000 C   0  0  0  0  0  0  0  0  0
   -0.0003   -4.1800    0.0000 C   0  0  0  0  0  0  0  0  0
   -3.1601    2.7220    0.0000 O   0  0  0  0  0  0  0  0  0
   -3.9851    1.2931    0.0000 O   0  0  0  0  0  0  0  0  0
   -4.2871    2.4200    0.0000 C   0  0  0  0  0  0  0  0  0
   -5.0016    2.8325    0.0000 F   0  0  0  0  0  0  0  0  0
   -3.8746    3.1345    0.0000 F   0  0  0  0  0  0  0  0  0
   -4.6996    1.7056    0.0000 F   0  0  0  0  0  0  0  0  0
  1  2  1  0  0  0  0
  1 18  2  0  0  0  0
  1 19  2  0  0  0  0
  1 20  1  0  0  0  0
  2  3  1  0  0  0  0
  3  4  4  0  0  0  0
  3  8  4  0  0  0  0
  4  5  4  0  0  0  0
  5  6  4  0  0  0  0
  5  9  1  0  0  0  0
  6  7  4  0  0  0  0
  7  8  4  0  0  0  0
  9 10  1  0  0  0  0
  9 14  1  0  0  0  0
 10 11  1  0  0  0  0
 11 12  1  0  0  0  0
 12 13  1  0  0  0  0
 13 14  1  0  0  0  0
 13 15  1  0  0  0  0
 15 16  1  0  0  0  0
 16 17  1  0  0  0  0
 20 21  1  0  0  0  0
 20 22  1  0  0  0  0
 20 23  1  0  0  0  0
M  END
>  <Name_Molregno>
150603

>  <DOPAMINE D3>
6.48

>  <DOPAMINE D4>
6.03

$$$$
152134
  Marvin  02231216192D 0   1.00000     0.00000     0

 21 23  0  0  1  0  0  0  0  0999 V2000
    3.1457   -1.4715    0.0000 O   0  0  0  0  0  0  0  0  0
    2.5326   -0.9195    0.0000 C   0  0  0  0  0  0  0  0  0
    2.5326   -0.0945    0.0000 C   0  0  0  0  0  0  0  0  0
    1.8182    0.3180    0.0000 C   0  0  0  0  0  0  0  0  0
    1.1037   -0.0945    0.0000 C   0  0  0  0  0  0  0  0  0
    1.1037   -0.9195    0.0000 C   0  0  0  0  0  0  0  0  0
    1.8182   -1.3320    0.0000 C   0  0  0  0  0  0  0  0  0
    1.9897   -2.1389    0.0000 C   0  0  0  0  0  0  0  0  0
    2.8102   -2.2252    0.0000 C   0  0  0  0  0  0  0  0  0
    1.8182    1.1430    0.0000 C   0  0  0  0  0  0  0  0  0
    1.1037    1.5555    0.0000 C   0  0  0  0  0  0  0  0  0
    2.5326    1.5555    0.0000 C   0  0  0  0  0  0  0  0  0
    2.5326    2.3805    0.0000 N   0  0  0  0  0  0  0  0  0
    1.8182    2.7930    0.0000 C   0  0  0  0  0  0  0  0  0
    1.8182    3.6180    0.0000 C   0  0  0  0  0  0  0  0  0
    1.1037    4.0305    0.0000 C   0  0  0  0  0  0  0  0  0
    3.2471    2.7930    0.0000 C   0  0  0  0  0  0  0  0  0
    3.2471    3.6180    0.0000 C   0  0  0  0  0  0  0  0  0
    3.9616    4.0305    0.0000 C   0  0  0  0  0  0  0  0  0
    3.2471    1.1430    0.0000 C   0  0  0  0  0  0  0  0  0
    3.2471    0.3180    0.0000 C   0  0  0  0  0  0  0  0  0
  1  2  4  0  0  0  0
  1  9  4  0  0  0  0
  2  3  4  0  0  0  0
  2  7  4  0  0  0  0
  3  4  4  0  0  0  0
  3 21  1  0  0  0  0
  4  5  4  0  0  0  0
  4 10  1  0  0  0  0
  5  6  4  0  0  0  0
  6  7  4  0  0  0  0
  7  8  4  0  0  0  0
  8  9  4  0  0  0  0
 10 11  1  0  0  0  0
 10 12  1  0  0  0  0
 12 13  1  0  0  0  0
 12 20  1  0  0  0  0
 13 14  1  0  0  0  0
 13 17  1  0  0  0  0
 14 15  1  0  0  0  0
 15 16  1  0  0  0  0
 17 18  1  0  0  0  0
 18 19  1  0  0  0  0
 20 21  1  0  0  0  0
M  END
>  <Name_Molregno>
152134

>  <5-HT1A>
6.92

>  <5-HT2A>
7.15

>  <5-HT2C>
7.15

>  <DOPAMINE D3>
7.57

>  <DOPAMINE D4>
7.26

$$$$
152295
  Marvin  02231216192D 0   1.00000     0.00000     0

 19 22  0  0  1  0  0  0  0  0999 V2000
   -2.7246    2.1114    0.0000 O   0  0  0  0  0  0  0  0  0
   -2.5530    1.3044    0.0000 C   0  0  0  0  0  0  0  0  0
   -1.8386    0.8919    0.0000 C   0  0  0  0  0  0  0  0  0
   -1.1241    1.3044    0.0000 C   0  0  0  0  0  0  0  0  0
   -0.4096    0.8919    0.0000 C   0  0  0  0  0  0  0  0  0
    0.2035    1.4439    0.0000 N   0  0  0  0  0  0  0  0  0
   -0.1321    2.1976    0.0000 C   0  0  0  0  0  0  0  0  0
   -0.9526    2.1114    0.0000 C   0  0  0  0  0  0  0  0  0
    1.0104    1.2724    0.0000 C   0  0  0  0  0  0  0  0  0
    1.5625    1.8855    0.0000 C   0  0  0  0  0  0  0  0  0
    2.3694    1.7140    0.0000 C   0  0  0  0  0  0  0  0  0
   -0.4096    0.0669    0.0000 C   0  0  0  0  0  0  0  0  0
   -1.1241   -0.3456    0.0000 C   0  0  0  0  0  0  0  0  0
   -1.8386    0.0669    0.0000 C   0  0  0  0  0  0  0  0  0
   -2.5530   -0.3456    0.0000 C   0  0  0  0  0  0  0  0  0
   -3.2675    0.0669    0.0000 C   0  0  0  0  0  0  0  0  0
   -3.2675    0.8919    0.0000 C   0  0  0  0  0  0  0  0  0
   -3.8806    1.4439    0.0000 C   0  0  0  0  0  0  0  0  0
   -3.5450    2.1976    0.0000 C   0  0  0  0  0  0  0  0  0
  1  2  4  0  0  0  0
  1 19  4  0  0  0  0
  2  3  4  0  0  0  0
  2 17  4  0  0  0  0
  3  4  1  0  0  0  0
  3 14  4  0  0  0  0
  4  5  1  0  0  0  0
  4  8  1  0  0  0  0
  5  6  1  0  0  0  0
  5 12  1  0  0  0  0
  6  7  1  0  0  0  0
  6  9  1  0  0  0  0
  7  8  1  0  0  0  0
  9 10  1  0  0  0  0
 10 11  1  0  0  0  0
 12 13  1  0  0  0  0
 13 14  1  0  0  0  0
 14 15  4  0  0  0  0
 15 16  4  0  0  0  0
 16 17  4  0  0  0  0
 17 18  4  0  0  0  0
 18 19  4  0  0  0  0
M  END
>  <Name_Molregno>
152295

>  <5-HT1A>
8.41

>  <5-HT2A>
6.84

>  <5-HT2C>
6.84

>  <DOPAMINE D3>
6.49

>  <DOPAMINE D4>
5.39

$$$$
158566
  Marvin  02231216192D 0   1.00000     0.00000     0

 18 19  0  0  1  0  0  0  0  0999 V2000
    3.6036   -2.8993    0.0000 O   0  0  0  0  0  0  0  0  0
    3.8586   -2.1147    0.0000 C   0  0  0  0  0  0  0  0  0
    3.3065   -1.5016    0.0000 C   0  0  0  0  0  0  0  0  0
    3.4780   -0.6946    0.0000 N   0  0  0  0  0  0  0  0  0
    2.7636   -0.2821    0.0000 C   0  0  0  0  0  0  0  0  0
    2.7636    0.5429    0.0000 C   0  0  0  0  0  0  0  0  0
    3.4780    0.9554    0.0000 C   0  0  0  0  0  0  0  0  0
    3.4780    1.7804    0.0000 N   0  0  0  0  0  0  0  0  0
    2.7636    2.1929    0.0000 C   0  0  0  0  0  0  0  0  0
    2.7636    3.0179    0.0000 C   0  0  0  0  0  0  0  0  0
    2.0491    3.4304    0.0000 C   0  0  0  0  0  0  0  0  0
    4.1925    2.1929    0.0000 C   0  0  0  0  0  0  0  0  0
    4.1925    3.0179    0.0000 C   0  0  0  0  0  0  0  0  0
    4.9070    3.4304    0.0000 C   0  0  0  0  0  0  0  0  0
    4.1925    0.5429    0.0000 C   0  0  0  0  0  0  0  0  0
    4.1925   -0.2821    0.0000 C   0  0  0  0  0  0  0  0  0
    2.1505   -0.8341    0.0000 C   0  0  0  0  0  0  0  0  0
    2.4860   -1.5878    0.0000 C   0  0  0  0  0  0  0  0  0
  1  2  2  0  0  0  0
  2  3  1  0  0  0  0
  3  4  4  0  0  0  0
  3 18  4  0  0  0  0
  4  5  4  0  0  0  0
  4 16  1  0  0  0  0
  5  6  1  0  0  0  0
  5 17  4  0  0  0  0
  6  7  1  0  0  0  0
  7  8  1  0  0  0  0
  7 15  1  0  0  0  0
  8  9  1  0  0  0  0
  8 12  1  0  0  0  0
  9 10  1  0  0  0  0
 10 11  1  0  0  0  0
 12 13  1  0  0  0  0
 13 14  1  0  0  0  0
 15 16  1  0  0  0  0
 17 18  4  0  0  0  0
M  END
>  <Name_Molregno>
158566

>  <DOPAMINE D2>
6.34

>  <DOPAMINE D3>
7.37

>  <DOPAMINE D4>
6.54

$$$$
166349
  Marvin  02231216192D 0   1.00000     0.00000     0

 25 28  0  0  0  0  0  0  0  0999 V2000
   -1.0353   -0.8203    0.0000 N   0  0  0  0  0  0  0  0  0
   -1.2902   -1.6049    0.0000 C   0  0  0  0  0  0  0  0  0
   -2.1152   -1.6049    0.0000 N   0  0  0  0  0  0  0  0  0
   -2.3702   -0.8203    0.0000 C   0  0  0  0  0  0  0  0  0
   -3.1548   -0.5654    0.0000 C   0  0  0  0  0  0  0  0  0
   -3.3263    0.2416    0.0000 N   0  0  0  0  0  0  0  0  0
   -4.1109    0.4965    0.0000 C   0  0  0  0  0  0  0  0  0
   -4.2825    1.3035    0.0000 C   0  0  0  0  0  0  0  0  0
   -3.6694    1.8556    0.0000 N   0  0  0  0  0  0  0  0  0
   -2.8848    1.6006    0.0000 C   0  0  0  0  0  0  0  0  0
   -2.7132    0.7936    0.0000 C   0  0  0  0  0  0  0  0  0
   -3.8409    2.6625    0.0000 C   0  0  0  0  0  0  0  0  0
   -4.6255    2.9175    0.0000 N   0  0  0  0  0  0  0  0  0
   -4.7971    3.7244    0.0000 C   0  0  0  0  0  0  0  0  0
   -4.1840    4.2765    0.0000 C   0  0  0  0  0  0  0  0  0
   -3.3993    4.0215    0.0000 C   0  0  0  0  0  0  0  0  0
   -3.2278    3.2146    0.0000 N   0  0  0  0  0  0  0  0  0
   -1.7027   -0.3354    0.0000 C   0  0  0  0  0  0  0  0  0
   -1.7027    0.4896    0.0000 C   0  0  0  0  0  0  0  0  0
   -0.8053   -2.2724    0.0000 C   0  0  0  0  0  0  0  0  0
    0.0152   -2.1861    0.0000 C   0  0  0  0  0  0  0  0  0
    0.5001   -2.8536    0.0000 C   0  0  0  0  0  0  0  0  0
    0.1645   -3.6072    0.0000 C   0  0  0  0  0  0  0  0  0
   -0.6559   -3.6935    0.0000 C   0  0  0  0  0  0  0  0  0
   -1.1409   -3.0260    0.0000 C   0  0  0  0  0  0  0  0  0
  1  2  4  0  0  0  0
  1 18  4  0  0  0  0
  2  3  4  0  0  0  0
  2 20  1  0  0  0  0
  3  4  4  0  0  0  0
  4  5  1  0  0  0  0
  4 18  4  0  0  0  0
  5  6  1  0  0  0  0
  6  7  1  0  0  0  0
  6 11  1  0  0  0  0
  7  8  1  0  0  0  0
  8  9  1  0  0  0  0
  9 10  1  0  0  0  0
  9 12  1  0  0  0  0
 10 11  1  0  0  0  0
 12 13  4  0  0  0  0
 12 17  4  0  0  0  0
 13 14  4  0  0  0  0
 14 15  4  0  0  0  0
 15 16  4  0  0  0  0
 16 17  4  0  0  0  0
 18 19  1  0  0  0  0
 20 21  4  0  0  0  0
 20 25  4  0  0  0  0
 21 22  4  0  0  0  0
 22 23  4  0  0  0  0
 23 24  4  0  0  0  0
 24 25  4  0  0  0  0
M  STY  1   1 DAT
M  SAL   1  1   1
M  SDT   1 MRV_IMPLICIT_H                                        
M  SDD   1     0.0000    0.0000    DR    ALL  0       0  
M  SED   1 IMPL_H1
M  END
>  <Name_Molregno>
166349

>  <DOPAMINE D2>
5.84

>  <DOPAMINE D3>
5.53

>  <DOPAMINE D4>
8.22

$$$$
166379
  Marvin  02231216192D 0   1.00000     0.00000     0

 24 27  0  0  0  0  0  0  0  0999 V2000
    1.0036   -0.3723    0.0000 N   0  0  0  0  0  0  0  0  0
    0.7486   -1.1569    0.0000 C   0  0  0  0  0  0  0  0  0
   -0.0764   -1.1569    0.0000 C   0  0  0  0  0  0  0  0  0
   -0.3313   -0.3723    0.0000 N   0  0  0  0  0  0  0  0  0
    0.3361    0.1126    0.0000 C   0  0  0  0  0  0  0  0  0
    0.3361    0.9376    0.0000 C   0  0  0  0  0  0  0  0  0
   -0.3783    1.3501    0.0000 C   0  0  0  0  0  0  0  0  0
   -0.3783    2.1751    0.0000 C   0  0  0  0  0  0  0  0  0
    0.3361    2.5876    0.0000 C   0  0  0  0  0  0  0  0  0
    1.0506    2.1751    0.0000 C   0  0  0  0  0  0  0  0  0
    1.0506    1.3501    0.0000 C   0  0  0  0  0  0  0  0  0
   -0.5613   -1.8244    0.0000 C   0  0  0  0  0  0  0  0  0
   -1.3818   -1.7381    0.0000 N   0  0  0  0  0  0  0  0  0
   -1.8667   -2.4056    0.0000 C   0  0  0  0  0  0  0  0  0
   -2.6872   -2.3193    0.0000 C   0  0  0  0  0  0  0  0  0
   -3.0227   -1.5657    0.0000 N   0  0  0  0  0  0  0  0  0
   -2.5378   -0.8982    0.0000 C   0  0  0  0  0  0  0  0  0
   -1.7173   -0.9845    0.0000 C   0  0  0  0  0  0  0  0  0
   -3.8432   -1.4794    0.0000 C   0  0  0  0  0  0  0  0  0
   -4.3281   -2.1469    0.0000 N   0  0  0  0  0  0  0  0  0
   -5.1486   -2.0606    0.0000 C   0  0  0  0  0  0  0  0  0
   -5.4842   -1.3070    0.0000 C   0  0  0  0  0  0  0  0  0
   -4.9992   -0.6395    0.0000 C   0  0  0  0  0  0  0  0  0
   -4.1788   -0.7257    0.0000 N   0  0  0  0  0  0  0  0  0
  1  2  4  0  0  0  0
  1  5  4  0  0  0  0
  2  3  4  0  0  0  0
  3  4  4  0  0  0  0
  3 12  1  0  0  0  0
  4  5  4  0  0  0  0
  5  6  1  0  0  0  0
  6  7  4  0  0  0  0
  6 11  4  0  0  0  0
  7  8  4  0  0  0  0
  8  9  4  0  0  0  0
  9 10  4  0  0  0  0
 10 11  4  0  0  0  0
 12 13  1  0  0  0  0
 13 14  1  0  0  0  0
 13 18  1  0  0  0  0
 14 15  1  0  0  0  0
 15 16  1  0  0  0  0
 16 17  1  0  0  0  0
 16 19  1  0  0  0  0
 17 18  1  0  0  0  0
 19 20  4  0  0  0  0
 19 24  4  0  0  0  0
 20 21  4  0  0  0  0
 21 22  4  0  0  0  0
 22 23  4  0  0  0  0
 23 24  4  0  0  0  0
M  STY  1   1 DAT
M  SAL   1  1   1
M  SDT   1 MRV_IMPLICIT_H                                        
M  SDD   1     0.0000    0.0000    DR    ALL  0       0  
M  SED   1 IMPL_H1
M  END
>  <Name_Molregno>
166379

>  <5-HT1A>
6.74

>  <DOPAMINE D2>
5.65

>  <DOPAMINE D3>
5.1

>  <DOPAMINE D4>
8.42

$$$$
166424
  Marvin  02231216192D 0   1.00000     0.00000     0

 24 27  0  0  0  0  0  0  0  0999 V2000
    1.0036   -0.3723    0.0000 N   0  0  0  0  0  0  0  0  0
    0.7486   -1.1569    0.0000 C   0  0  0  0  0  0  0  0  0
   -0.0764   -1.1569    0.0000 C   0  0  0  0  0  0  0  0  0
   -0.3313   -0.3723    0.0000 N   0  0  0  0  0  0  0  0  0
    0.3361    0.1126    0.0000 C   0  0  0  0  0  0  0  0  0
    0.3361    0.9376    0.0000 C   0  0  0  0  0  0  0  0  0
   -0.3783    1.3501    0.0000 C   0  0  0  0  0  0  0  0  0
   -0.3783    2.1751    0.0000 C   0  0  0  0  0  0  0  0  0
    0.3361    2.5876    0.0000 C   0  0  0  0  0  0  0  0  0
    1.0506    2.1751    0.0000 C   0  0  0  0  0  0  0  0  0
    1.0506    1.3501    0.0000 C   0  0  0  0  0  0  0  0  0
   -0.5613   -1.8244    0.0000 C   0  0  0  0  0  0  0  0  0
   -1.3818   -1.7381    0.0000 N   0  0  0  0  0  0  0  0  0
   -1.8667   -2.4056    0.0000 C   0  0  0  0  0  0  0  0  0
   -2.6872   -2.3193    0.0000 C   0  0  0  0  0  0  0  0  0
   -3.0227   -1.5657    0.0000 N   0  0  0  0  0  0  0  0  0
   -2.5378   -0.8982    0.0000 C   0  0  0  0  0  0  0  0  0
   -1.7173   -0.9845    0.0000 C   0  0  0  0  0  0  0  0  0
   -3.8432   -1.4794    0.0000 C   0  0  0  0  0  0  0  0  0
   -4.3281   -2.1469    0.0000 N   0  0  0  0  0  0  0  0  0
   -5.1486   -2.0606    0.0000 C   0  0  0  0  0  0  0  0  0
   -5.4842   -1.3070    0.0000 N   0  0  0  0  0  0  0  0  0
   -4.9992   -0.6395    0.0000 C   0  0  0  0  0  0  0  0  0
   -4.1788   -0.7257    0.0000 C   0  0  0  0  0  0  0  0  0
  1  2  4  0  0  0  0
  1  5  4  0  0  0  0
  2  3  4  0  0  0  0
  3  4  4  0  0  0  0
  3 12  1  0  0  0  0
  4  5  4  0  0  0  0
  5  6  1  0  0  0  0
  6  7  4  0  0  0  0
  6 11  4  0  0  0  0
  7  8  4  0  0  0  0
  8  9  4  0  0  0  0
  9 10  4  0  0  0  0
 10 11  4  0  0  0  0
 12 13  1  0  0  0  0
 13 14  1  0  0  0  0
 13 18  1  0  0  0  0
 14 15  1  0  0  0  0
 15 16  1  0  0  0  0
 16 17  1  0  0  0  0
 16 19  1  0  0  0  0
 17 18  1  0  0  0  0
 19 20  4  0  0  0  0
 19 24  4  0  0  0  0
 20 21  4  0  0  0  0
 21 22  4  0  0  0  0
 22 23  4  0  0  0  0
 23 24  4  0  0  0  0
M  STY  1   1 DAT
M  SAL   1  1   1
M  SDT   1 MRV_IMPLICIT_H                                        
M  SDD   1     0.0000    0.0000    DR    ALL  0       0  
M  SED   1 IMPL_H1
M  END
>  <Name_Molregno>
166424

>  <DOPAMINE D2>
5.38

>  <DOPAMINE D3>
5.1

>  <DOPAMINE D4>
5.85

$$$$
166464
  Marvin  02231216192D 0   1.00000     0.00000     0

 24 27  0  0  0  0  0  0  0  0999 V2000
    1.0036   -0.3723    0.0000 N   0  0  0  0  0  0  0  0  0
    0.7486   -1.1569    0.0000 C   0  0  0  0  0  0  0  0  0
   -0.0764   -1.1569    0.0000 C   0  0  0  0  0  0  0  0  0
   -0.3313   -0.3723    0.0000 N   0  0  0  0  0  0  0  0  0
    0.3361    0.1126    0.0000 C   0  0  0  0  0  0  0  0  0
    0.3361    0.9376    0.0000 C   0  0  0  0  0  0  0  0  0
   -0.3783    1.3501    0.0000 C   0  0  0  0  0  0  0  0  0
   -0.3783    2.1751    0.0000 C   0  0  0  0  0  0  0  0  0
    0.3361    2.5876    0.0000 C   0  0  0  0  0  0  0  0  0
    1.0506    2.1751    0.0000 C   0  0  0  0  0  0  0  0  0
    1.0506    1.3501    0.0000 C   0  0  0  0  0  0  0  0  0
   -0.5613   -1.8244    0.0000 C   0  0  0  0  0  0  0  0  0
   -1.3818   -1.7381    0.0000 N   0  0  0  0  0  0  0  0  0
   -1.8667   -2.4056    0.0000 C   0  0  0  0  0  0  0  0  0
   -2.6872   -2.3193    0.0000 C   0  0  0  0  0  0  0  0  0
   -3.0227   -1.5657    0.0000 N   0  0  0  0  0  0  0  0  0
   -2.5378   -0.8982    0.0000 C   0  0  0  0  0  0  0  0  0
   -1.7173   -0.9845    0.0000 C   0  0  0  0  0  0  0  0  0
   -3.8432   -1.4794    0.0000 C   0  0  0  0  0  0  0  0  0
   -4.3281   -2.1469    0.0000 N   0  0  0  0  0  0  0  0  0
   -5.1486   -2.0606    0.0000 C   0  0  0  0  0  0  0  0  0
   -5.4842   -1.3070    0.0000 C   0  0  0  0  0  0  0  0  0
   -4.9992   -0.6395    0.0000 N   0  0  0  0  0  0  0  0  0
   -4.1788   -0.7257    0.0000 C   0  0  0  0  0  0  0  0  0
  1  2  4  0  0  0  0
  1  5  4  0  0  0  0
  2  3  4  0  0  0  0
  3  4  4  0  0  0  0
  3 12  1  0  0  0  0
  4  5  4  0  0  0  0
  5  6  1  0  0  0  0
  6  7  4  0  0  0  0
  6 11  4  0  0  0  0
  7  8  4  0  0  0  0
  8  9  4  0  0  0  0
  9 10  4  0  0  0  0
 10 11  4  0  0  0  0
 12 13  1  0  0  0  0
 13 14  1  0  0  0  0
 13 18  1  0  0  0  0
 14 15  1  0  0  0  0
 15 16  1  0  0  0  0
 16 17  1  0  0  0  0
 16 19  1  0  0  0  0
 17 18  1  0  0  0  0
 19 20  4  0  0  0  0
 19 24  4  0  0  0  0
 20 21  4  0  0  0  0
 21 22  4  0  0  0  0
 22 23  4  0  0  0  0
 23 24  4  0  0  0  0
M  STY  1   1 DAT
M  SAL   1  1   1
M  SDT   1 MRV_IMPLICIT_H                                        
M  SDD   1     0.0000    0.0000    DR    ALL  0       0  
M  SED   1 IMPL_H1
M  END
>  <Name_Molregno>
166464

>  <DOPAMINE D2>
5.38

>  <DOPAMINE D3>
5.18

>  <DOPAMINE D4>
7.3

$$$$
166465
  Marvin  02231216192D 0   1.00000     0.00000     0

 24 27  0  0  0  0  0  0  0  0999 V2000
    1.0036   -0.3723    0.0000 N   0  0  0  0  0  0  0  0  0
    0.7486   -1.1569    0.0000 C   0  0  0  0  0  0  0  0  0
   -0.0764   -1.1569    0.0000 C   0  0  0  0  0  0  0  0  0
   -0.3313   -0.3723    0.0000 N   0  0  0  0  0  0  0  0  0
    0.3361    0.1126    0.0000 C   0  0  0  0  0  0  0  0  0
    0.3361    0.9376    0.0000 C   0  0  0  0  0  0  0  0  0
   -0.3783    1.3501    0.0000 C   0  0  0  0  0  0  0  0  0
   -0.3783    2.1751    0.0000 C   0  0  0  0  0  0  0  0  0
    0.3361    2.5876    0.0000 C   0  0  0  0  0  0  0  0  0
    1.0506    2.1751    0.0000 C   0  0  0  0  0  0  0  0  0
    1.0506    1.3501    0.0000 C   0  0  0  0  0  0  0  0  0
   -0.5613   -1.8244    0.0000 C   0  0  0  0  0  0  0  0  0
   -1.3818   -1.7381    0.0000 N   0  0  0  0  0  0  0  0  0
   -1.8667   -2.4056    0.0000 C   0  0  0  0  0  0  0  0  0
   -2.6872   -2.3193    0.0000 C   0  0  0  0  0  0  0  0  0
   -3.0227   -1.5657    0.0000 N   0  0  0  0  0  0  0  0  0
   -2.5378   -0.8982    0.0000 C   0  0  0  0  0  0  0  0  0
   -1.7173   -0.9845    0.0000 C   0  0  0  0  0  0  0  0  0
   -3.8432   -1.4794    0.0000 C   0  0  0  0  0  0  0  0  0
   -4.3281   -2.1469    0.0000 C   0  0  0  0  0  0  0  0  0
   -5.1486   -2.0606    0.0000 C   0  0  0  0  0  0  0  0  0
   -5.4842   -1.3070    0.0000 N   0  0  0  0  0  0  0  0  0
   -4.9992   -0.6395    0.0000 C   0  0  0  0  0  0  0  0  0
   -4.1788   -0.7257    0.0000 C   0  0  0  0  0  0  0  0  0
  1  2  4  0  0  0  0
  1  5  4  0  0  0  0
  2  3  4  0  0  0  0
  3  4  4  0  0  0  0
  3 12  1  0  0  0  0
  4  5  4  0  0  0  0
  5  6  1  0  0  0  0
  6  7  4  0  0  0  0
  6 11  4  0  0  0  0
  7  8  4  0  0  0  0
  8  9  4  0  0  0  0
  9 10  4  0  0  0  0
 10 11  4  0  0  0  0
 12 13  1  0  0  0  0
 13 14  1  0  0  0  0
 13 18  1  0  0  0  0
 14 15  1  0  0  0  0
 15 16  1  0  0  0  0
 16 17  1  0  0  0  0
 16 19  1  0  0  0  0
 17 18  1  0  0  0  0
 19 20  4  0  0  0  0
 19 24  4  0  0  0  0
 20 21  4  0  0  0  0
 21 22  4  0  0  0  0
 22 23  4  0  0  0  0
 23 24  4  0  0  0  0
M  STY  2   1 DAT   2 DAT
M  SAL   1  1   1
M  SDT   1 MRV_IMPLICIT_H                                        
M  SDD   1     0.0000    0.0000    DR    ALL  0       0  
M  SED   1 IMPL_H1
M  SAL   2  1  22
M  SDT   2 MRV_IMPLICIT_H                                        
M  SDD   2     0.0000    0.0000    DR    ALL  0       0  
M  SED   2 IMPL_H1
M  END
>  <Name_Molregno>
166465

>  <DOPAMINE D2>
5.46

>  <DOPAMINE D3>
5.1

>  <DOPAMINE D4>
5.14

$$$$
166497
  Marvin  02231216192D 0   1.00000     0.00000     0

 24 27  0  0  0  0  0  0  0  0999 V2000
    1.0036   -0.3723    0.0000 N   0  0  0  0  0  0  0  0  0
    0.7486   -1.1569    0.0000 C   0  0  0  0  0  0  0  0  0
   -0.0764   -1.1569    0.0000 C   0  0  0  0  0  0  0  0  0
   -0.3313   -0.3723    0.0000 N   0  0  0  0  0  0  0  0  0
    0.3361    0.1126    0.0000 C   0  0  0  0  0  0  0  0  0
    0.3361    0.9376    0.0000 C   0  0  0  0  0  0  0  0  0
   -0.3783    1.3501    0.0000 C   0  0  0  0  0  0  0  0  0
   -0.3783    2.1751    0.0000 C   0  0  0  0  0  0  0  0  0
    0.3361    2.5876    0.0000 C   0  0  0  0  0  0  0  0  0
    1.0506    2.1751    0.0000 C   0  0  0  0  0  0  0  0  0
    1.0506    1.3501    0.0000 C   0  0  0  0  0  0  0  0  0
   -0.5613   -1.8244    0.0000 C   0  0  0  0  0  0  0  0  0
   -1.3818   -1.7381    0.0000 N   0  0  0  0  0  0  0  0  0
   -1.8667   -2.4056    0.0000 C   0  0  0  0  0  0  0  0  0
   -2.6872   -2.3193    0.0000 C   0  0  0  0  0  0  0  0  0
   -3.0227   -1.5657    0.0000 N   0  0  0  0  0  0  0  0  0
   -2.5378   -0.8982    0.0000 C   0  0  0  0  0  0  0  0  0
   -1.7173   -0.9845    0.0000 C   0  0  0  0  0  0  0  0  0
   -3.8432   -1.4794    0.0000 C   0  0  0  0  0  0  0  0  0
   -4.3281   -2.1469    0.0000 C   0  0  0  0  0  0  0  0  0
   -5.1486   -2.0606    0.0000 C   0  0  0  0  0  0  0  0  0
   -5.4842   -1.3070    0.0000 C   0  0  0  0  0  0  0  0  0
   -4.9992   -0.6395    0.0000 N   0  0  0  0  0  0  0  0  0
   -4.1788   -0.7257    0.0000 C   0  0  0  0  0  0  0  0  0
  1  2  4  0  0  0  0
  1  5  4  0  0  0  0
  2  3  4  0  0  0  0
  3  4  4  0  0  0  0
  3 12  1  0  0  0  0
  4  5  4  0  0  0  0
  5  6  1  0  0  0  0
  6  7  4  0  0  0  0
  6 11  4  0  0  0  0
  7  8  4  0  0  0  0
  8  9  4  0  0  0  0
  9 10  4  0  0  0  0
 10 11  4  0  0  0  0
 12 13  1  0  0  0  0
 13 14  1  0  0  0  0
 13 18  1  0  0  0  0
 14 15  1  0  0  0  0
 15 16  1  0  0  0  0
 16 17  1  0  0  0  0
 16 19  1  0  0  0  0
 17 18  1  0  0  0  0
 19 20  4  0  0  0  0
 19 24  4  0  0  0  0
 20 21  4  0  0  0  0
 21 22  4  0  0  0  0
 22 23  4  0  0  0  0
 23 24  4  0  0  0  0
M  STY  1   1 DAT
M  SAL   1  1   1
M  SDT   1 MRV_IMPLICIT_H                                        
M  SDD   1     0.0000    0.0000    DR    ALL  0       0  
M  SED   1 IMPL_H1
M  END
>  <Name_Molregno>
166497

>  <DOPAMINE D2>
6.53

>  <DOPAMINE D3>
6.54

>  <DOPAMINE D4>
7.14

$$$$
166538
  Marvin  02231216192D 0   1.00000     0.00000     0

 24 27  0  0  0  0  0  0  0  0999 V2000
    1.0036   -0.3723    0.0000 N   0  0  0  0  0  0  0  0  0
    0.7486   -1.1569    0.0000 C   0  0  0  0  0  0  0  0  0
   -0.0764   -1.1569    0.0000 C   0  0  0  0  0  0  0  0  0
   -0.3313   -0.3723    0.0000 N   0  0  0  0  0  0  0  0  0
    0.3361    0.1126    0.0000 C   0  0  0  0  0  0  0  0  0
    0.3361    0.9376    0.0000 C   0  0  0  0  0  0  0  0  0
   -0.3783    1.3501    0.0000 C   0  0  0  0  0  0  0  0  0
   -0.3783    2.1751    0.0000 C   0  0  0  0  0  0  0  0  0
    0.3361    2.5876    0.0000 C   0  0  0  0  0  0  0  0  0
    1.0506    2.1751    0.0000 C   0  0  0  0  0  0  0  0  0
    1.0506    1.3501    0.0000 C   0  0  0  0  0  0  0  0  0
   -0.5613   -1.8244    0.0000 C   0  0  0  0  0  0  0  0  0
   -1.3818   -1.7381    0.0000 N   0  0  0  0  0  0  0  0  0
   -1.8667   -2.4056    0.0000 C   0  0  0  0  0  0  0  0  0
   -2.6872   -2.3193    0.0000 C   0  0  0  0  0  0  0  0  0
   -3.0227   -1.5657    0.0000 N   0  0  0  0  0  0  0  0  0
   -2.5378   -0.8982    0.0000 C   0  0  0  0  0  0  0  0  0
   -1.7173   -0.9845    0.0000 C   0  0  0  0  0  0  0  0  0
   -3.8432   -1.4794    0.0000 C   0  0  0  0  0  0  0  0  0
   -4.3281   -2.1469    0.0000 N   0  0  0  0  0  0  0  0  0
   -5.1486   -2.0606    0.0000 C   0  0  0  0  0  0  0  0  0
   -5.4842   -1.3070    0.0000 C   0  0  0  0  0  0  0  0  0
   -4.9992   -0.6395    0.0000 C   0  0  0  0  0  0  0  0  0
   -4.1788   -0.7257    0.0000 C   0  0  0  0  0  0  0  0  0
  1  2  4  0  0  0  0
  1  5  4  0  0  0  0
  2  3  4  0  0  0  0
  3  4  4  0  0  0  0
  3 12  1  0  0  0  0
  4  5  4  0  0  0  0
  5  6  1  0  0  0  0
  6  7  4  0  0  0  0
  6 11  4  0  0  0  0
  7  8  4  0  0  0  0
  8  9  4  0  0  0  0
  9 10  4  0  0  0  0
 10 11  4  0  0  0  0
 12 13  1  0  0  0  0
 13 14  1  0  0  0  0
 13 18  1  0  0  0  0
 14 15  1  0  0  0  0
 15 16  1  0  0  0  0
 16 17  1  0  0  0  0
 16 19  1  0  0  0  0
 17 18  1  0  0  0  0
 19 20  4  0  0  0  0
 19 24  4  0  0  0  0
 20 21  4  0  0  0  0
 21 22  4  0  0  0  0
 22 23  4  0  0  0  0
 23 24  4  0  0  0  0
M  STY  1   1 DAT
M  SAL   1  1   1
M  SDT   1 MRV_IMPLICIT_H                                        
M  SDD   1     0.0000    0.0000    DR    ALL  0       0  
M  SED   1 IMPL_H1
M  END
>  <Name_Molregno>
166538

>  <DOPAMINE D2>
5.66

>  <DOPAMINE D3>
5.82

>  <DOPAMINE D4>
8.07

$$$$
167144
  Marvin  02231216192D 0   1.00000     0.00000     0

 24 27  0  0  0  0  0  0  0  0999 V2000
    1.0036   -0.3723    0.0000 N   0  0  0  0  0  0  0  0  0
    0.7486   -1.1569    0.0000 C   0  0  0  0  0  0  0  0  0
   -0.0764   -1.1569    0.0000 C   0  0  0  0  0  0  0  0  0
   -0.3313   -0.3723    0.0000 N   0  0  0  0  0  0  0  0  0
    0.3361    0.1126    0.0000 C   0  0  0  0  0  0  0  0  0
    0.3361    0.9376    0.0000 C   0  0  0  0  0  0  0  0  0
   -0.3783    1.3501    0.0000 C   0  0  0  0  0  0  0  0  0
   -0.3783    2.1751    0.0000 C   0  0  0  0  0  0  0  0  0
    0.3361    2.5876    0.0000 C   0  0  0  0  0  0  0  0  0
    1.0506    2.1751    0.0000 C   0  0  0  0  0  0  0  0  0
    1.0506    1.3501    0.0000 C   0  0  0  0  0  0  0  0  0
   -0.5613   -1.8244    0.0000 C   0  0  0  0  0  0  0  0  0
   -1.3818   -1.7381    0.0000 N   0  0  0  0  0  0  0  0  0
   -1.8667   -2.4056    0.0000 C   0  0  0  0  0  0  0  0  0
   -2.6872   -2.3193    0.0000 C   0  0  0  0  0  0  0  0  0
   -3.0227   -1.5657    0.0000 N   0  0  0  0  0  0  0  0  0
   -2.5378   -0.8982    0.0000 C   0  0  0  0  0  0  0  0  0
   -1.7173   -0.9845    0.0000 C   0  0  0  0  0  0  0  0  0
   -3.8432   -1.4794    0.0000 C   0  0  0  0  0  0  0  0  0
   -4.3281   -2.1469    0.0000 C   0  0  0  0  0  0  0  0  0
   -5.1486   -2.0606    0.0000 C   0  0  0  0  0  0  0  0  0
   -5.4842   -1.3070    0.0000 C   0  0  0  0  0  0  0  0  0
   -4.9992   -0.6395    0.0000 C   0  0  0  0  0  0  0  0  0
   -4.1788   -0.7257    0.0000 C   0  0  0  0  0  0  0  0  0
  1  2  4  0  0  0  0
  1  5  4  0  0  0  0
  2  3  4  0  0  0  0
  3  4  4  0  0  0  0
  3 12  1  0  0  0  0
  4  5  4  0  0  0  0
  5  6  1  0  0  0  0
  6  7  4  0  0  0  0
  6 11  4  0  0  0  0
  7  8  4  0  0  0  0
  8  9  4  0  0  0  0
  9 10  4  0  0  0  0
 10 11  4  0  0  0  0
 12 13  1  0  0  0  0
 13 14  1  0  0  0  0
 13 18  1  0  0  0  0
 14 15  1  0  0  0  0
 15 16  1  0  0  0  0
 16 17  1  0  0  0  0
 16 19  1  0  0  0  0
 17 18  1  0  0  0  0
 19 20  4  0  0  0  0
 19 24  4  0  0  0  0
 20 21  4  0  0  0  0
 21 22  4  0  0  0  0
 22 23  4  0  0  0  0
 23 24  4  0  0  0  0
M  STY  1   1 DAT
M  SAL   1  1   1
M  SDT   1 MRV_IMPLICIT_H                                        
M  SDD   1     0.0000    0.0000    DR    ALL  0       0  
M  SED   1 IMPL_H1
M  END
>  <Name_Molregno>
167144

>  <DOPAMINE D2>
6.6

>  <DOPAMINE D3>
6.71

>  <DOPAMINE D4>
8.28

$$$$
174434
  Marvin  02231216192D 0   1.00000     0.00000     0

 20 22  0  0  0  0  0  0  0  0999 V2000
    6.5563    3.8496    0.0000 O   0  0  0  0  0  0  0  0  0
    5.8418    3.4371    0.0000 C   0  0  0  0  0  0  0  0  0
    5.8418    2.6121    0.0000 C   0  0  0  0  0  0  0  0  0
    6.5093    2.1272    0.0000 C   0  0  0  0  0  0  0  0  0
    6.2543    1.3426    0.0000 C   0  0  0  0  0  0  0  0  0
    5.4293    1.3426    0.0000 N   0  0  0  0  0  0  0  0  0
    5.1744    2.1272    0.0000 C   0  0  0  0  0  0  0  0  0
    4.9444    0.6751    0.0000 C   0  0  0  0  0  0  0  0  0
    5.2800   -0.0785    0.0000 C   0  0  0  0  0  0  0  0  0
    4.7950   -0.7460    0.0000 C   0  0  0  0  0  0  0  0  0
    3.9746   -0.6597    0.0000 N   0  0  0  0  0  0  0  0  0
    3.6390    0.0939    0.0000 C   0  0  0  0  0  0  0  0  0
    4.1239    0.7614    0.0000 C   0  0  0  0  0  0  0  0  0
    3.4896   -1.3272    0.0000 C   0  0  0  0  0  0  0  0  0
    2.6691   -1.2409    0.0000 C   0  0  0  0  0  0  0  0  0
    2.1842   -1.9084    0.0000 C   0  0  0  0  0  0  0  0  0
    1.3637   -1.8221    0.0000 C   0  0  0  0  0  0  0  0  0
    1.0282   -1.0685    0.0000 C   0  0  0  0  0  0  0  0  0
    1.5131   -0.4010    0.0000 C   0  0  0  0  0  0  0  0  0
    2.3336   -0.4873    0.0000 C   0  0  0  0  0  0  0  0  0
  1  2  2  0  0  0  0
  2  3  1  0  0  0  0
  3  4  4  0  0  0  0
  3  7  4  0  0  0  0
  4  5  4  0  0  0  0
  5  6  4  0  0  0  0
  6  7  4  0  0  0  0
  6  8  1  0  0  0  0
  8  9  1  0  0  0  0
  8 13  1  0  0  0  0
  9 10  1  0  0  0  0
 10 11  1  0  0  0  0
 11 12  1  0  0  0  0
 11 14  1  0  0  0  0
 12 13  1  0  0  0  0
 14 15  1  0  0  0  0
 15 16  4  0  0  0  0
 15 20  4  0  0  0  0
 16 17  4  0  0  0  0
 17 18  4  0  0  0  0
 18 19  4  0  0  0  0
 19 20  4  0  0  0  0
M  END
>  <Name_Molregno>
174434

>  <DOPAMINE D2>
4.25

>  <DOPAMINE D3>
4.51

>  <DOPAMINE D4>
6.02

$$$$
174487
  Marvin  02231216192D 0   1.00000     0.00000     0

 20 22  0  0  0  0  0  0  0  0999 V2000
    1.3146   -2.3495    0.0000 N   0  0  0  0  0  0  0  0  0
    1.9820   -2.8344    0.0000 C   0  0  0  0  0  0  0  0  0
    1.7271   -3.6191    0.0000 C   0  0  0  0  0  0  0  0  0
    0.9021   -3.6191    0.0000 C   0  0  0  0  0  0  0  0  0
    0.6471   -2.8344    0.0000 C   0  0  0  0  0  0  0  0  0
   -0.1375   -2.5795    0.0000 C   0  0  0  0  0  0  0  0  0
   -0.9221   -2.3246    0.0000 C   0  0  0  0  0  0  0  0  0
    1.3146   -1.5245    0.0000 C   0  0  0  0  0  0  0  0  0
    0.6001   -1.1120    0.0000 C   0  0  0  0  0  0  0  0  0
    0.6001   -0.2870    0.0000 C   0  0  0  0  0  0  0  0  0
    1.3146    0.1255    0.0000 N   0  0  0  0  0  0  0  0  0
    2.0290   -0.2870    0.0000 C   0  0  0  0  0  0  0  0  0
    2.0290   -1.1120    0.0000 C   0  0  0  0  0  0  0  0  0
    1.3146    0.9505    0.0000 C   0  0  0  0  0  0  0  0  0
    2.0290    1.3630    0.0000 C   0  0  0  0  0  0  0  0  0
    2.0290    2.1880    0.0000 C   0  0  0  0  0  0  0  0  0
    2.7435    2.6005    0.0000 C   0  0  0  0  0  0  0  0  0
    3.4580    2.1880    0.0000 C   0  0  0  0  0  0  0  0  0
    3.4580    1.3630    0.0000 C   0  0  0  0  0  0  0  0  0
    2.7435    0.9505    0.0000 C   0  0  0  0  0  0  0  0  0
  1  2  4  0  0  0  0
  1  5  4  0  0  0  0
  1  8  1  0  0  0  0
  2  3  4  0  0  0  0
  3  4  4  0  0  0  0
  4  5  4  0  0  0  0
  5  6  1  0  0  0  0
  6  7  3  0  0  0  0
  8  9  1  0  0  0  0
  8 13  1  0  0  0  0
  9 10  1  0  0  0  0
 10 11  1  0  0  0  0
 11 12  1  0  0  0  0
 11 14  1  0  0  0  0
 12 13  1  0  0  0  0
 14 15  1  0  0  0  0
 15 16  4  0  0  0  0
 15 20  4  0  0  0  0
 16 17  4  0  0  0  0
 17 18  4  0  0  0  0
 18 19  4  0  0  0  0
 19 20  4  0  0  0  0
M  END
>  <Name_Molregno>
174487

>  <DOPAMINE D2>
5.19

>  <DOPAMINE D3>
5.1

>  <DOPAMINE D4>
6.03

$$$$
174513
  Marvin  02231216192D 0   1.00000     0.00000     0

 24 26  0  0  0  0  0  0  0  0999 V2000
   -0.6950   -1.9511    0.0000 N   0  0  0  0  0  0  0  0  0
   -0.0276   -2.4361    0.0000 C   0  0  0  0  0  0  0  0  0
   -0.2825   -3.2207    0.0000 C   0  0  0  0  0  0  0  0  0
   -1.1075   -3.2207    0.0000 C   0  0  0  0  0  0  0  0  0
   -1.3624   -2.4361    0.0000 C   0  0  0  0  0  0  0  0  0
   -2.1471   -2.1811    0.0000 C   0  0  0  0  0  0  0  0  0
   -2.7601   -2.7332    0.0000 C   0  0  0  0  0  0  0  0  0
   -2.5886   -3.5401    0.0000 C   0  0  0  0  0  0  0  0  0
   -2.4171   -4.3471    0.0000 N   0  0  0  0  0  0  0  0  0
   -3.5448   -2.4782    0.0000 C   0  0  0  0  0  0  0  0  0
   -4.3294   -2.2233    0.0000 N   0  0  0  0  0  0  0  0  0
   -0.6950   -1.1261    0.0000 C   0  0  0  0  0  0  0  0  0
   -1.4095   -0.7136    0.0000 C   0  0  0  0  0  0  0  0  0
   -1.4095    0.1114    0.0000 C   0  0  0  0  0  0  0  0  0
   -0.6950    0.5239    0.0000 N   0  0  0  0  0  0  0  0  0
    0.0195    0.1114    0.0000 C   0  0  0  0  0  0  0  0  0
    0.0195   -0.7136    0.0000 C   0  0  0  0  0  0  0  0  0
   -0.6950    1.3489    0.0000 C   0  0  0  0  0  0  0  0  0
    0.0195    1.7614    0.0000 C   0  0  0  0  0  0  0  0  0
    0.0195    2.5864    0.0000 C   0  0  0  0  0  0  0  0  0
    0.7340    2.9989    0.0000 C   0  0  0  0  0  0  0  0  0
    1.4484    2.5864    0.0000 C   0  0  0  0  0  0  0  0  0
    1.4484    1.7614    0.0000 C   0  0  0  0  0  0  0  0  0
    0.7340    1.3489    0.0000 C   0  0  0  0  0  0  0  0  0
  1  2  4  0  0  0  0
  1  5  4  0  0  0  0
  1 12  1  0  0  0  0
  2  3  4  0  0  0  0
  3  4  4  0  0  0  0
  4  5  4  0  0  0  0
  5  6  1  0  0  0  0
  6  7  2  0  0  0  0
  7  8  1  0  0  0  0
  7 10  1  0  0  0  0
  8  9  3  0  0  0  0
 10 11  3  0  0  0  0
 12 13  1  0  0  0  0
 12 17  1  0  0  0  0
 13 14  1  0  0  0  0
 14 15  1  0  0  0  0
 15 16  1  0  0  0  0
 15 18  1  0  0  0  0
 16 17  1  0  0  0  0
 18 19  1  0  0  0  0
 19 20  4  0  0  0  0
 19 24  4  0  0  0  0
 20 21  4  0  0  0  0
 21 22  4  0  0  0  0
 22 23  4  0  0  0  0
 23 24  4  0  0  0  0
M  END
>  <Name_Molregno>
174513

>  <DOPAMINE D2>
5.04

>  <DOPAMINE D3>
5.29

>  <DOPAMINE D4>
6.55

$$$$
174514
  Marvin  02231216192D 0   1.00000     0.00000     0

 19 21  0  0  0  0  0  0  0  0999 V2000
    0.0969    0.5128    0.0000 I   0  0  0  0  0  0  0  0  0
    0.0969   -0.3122    0.0000 C   0  0  0  0  0  0  0  0  0
    0.7643   -0.7971    0.0000 N   0  0  0  0  0  0  0  0  0
    0.5094   -1.5818    0.0000 C   0  0  0  0  0  0  0  0  0
   -0.3156   -1.5818    0.0000 C   0  0  0  0  0  0  0  0  0
   -0.5706   -0.7971    0.0000 C   0  0  0  0  0  0  0  0  0
    1.5489   -0.5422    0.0000 C   0  0  0  0  0  0  0  0  0
    1.7204    0.2648    0.0000 C   0  0  0  0  0  0  0  0  0
    2.5051    0.5197    0.0000 C   0  0  0  0  0  0  0  0  0
    3.1182   -0.0323    0.0000 N   0  0  0  0  0  0  0  0  0
    2.9466   -0.8393    0.0000 C   0  0  0  0  0  0  0  0  0
    2.1620   -1.0942    0.0000 C   0  0  0  0  0  0  0  0  0
    3.9028    0.2226    0.0000 C   0  0  0  0  0  0  0  0  0
    4.5159   -0.3294    0.0000 C   0  0  0  0  0  0  0  0  0
    5.3005   -0.0745    0.0000 C   0  0  0  0  0  0  0  0  0
    5.9136   -0.6265    0.0000 C   0  0  0  0  0  0  0  0  0
    5.7421   -1.4335    0.0000 C   0  0  0  0  0  0  0  0  0
    4.9574   -1.6884    0.0000 C   0  0  0  0  0  0  0  0  0
    4.3443   -1.1364    0.0000 C   0  0  0  0  0  0  0  0  0
  1  2  1  0  0  0  0
  2  3  4  0  0  0  0
  2  6  4  0  0  0  0
  3  4  4  0  0  0  0
  3  7  1  0  0  0  0
  4  5  4  0  0  0  0
  5  6  4  0  0  0  0
  7  8  1  0  0  0  0
  7 12  1  0  0  0  0
  8  9  1  0  0  0  0
  9 10  1  0  0  0  0
 10 11  1  0  0  0  0
 10 13  1  0  0  0  0
 11 12  1  0  0  0  0
 13 14  1  0  0  0  0
 14 15  4  0  0  0  0
 14 19  4  0  0  0  0
 15 16  4  0  0  0  0
 16 17  4  0  0  0  0
 17 18  4  0  0  0  0
 18 19  4  0  0  0  0
M  END
>  <Name_Molregno>
174514

>  <DOPAMINE D2>
5.18

>  <DOPAMINE D3>
5.59

>  <DOPAMINE D4>
5.82

$$$$
174531
  Marvin  02231216192D 0   1.00000     0.00000     0

 26 29  0  0  0  0  0  0  0  0999 V2000
   -0.1857   -2.7257    0.0000 N   0  0  0  0  0  0  0  0  0
    0.4817   -3.2107    0.0000 C   0  0  0  0  0  0  0  0  0
    0.2268   -3.9953    0.0000 C   0  0  0  0  0  0  0  0  0
   -0.5982   -3.9953    0.0000 C   0  0  0  0  0  0  0  0  0
   -0.8531   -3.2107    0.0000 C   0  0  0  0  0  0  0  0  0
   -1.6378   -2.9557    0.0000 C   0  0  0  0  0  0  0  0  0
   -2.4224   -2.7008    0.0000 C   0  0  0  0  0  0  0  0  0
   -3.2070   -2.4458    0.0000 C   0  0  0  0  0  0  0  0  0
   -3.8201   -2.9979    0.0000 C   0  0  0  0  0  0  0  0  0
   -4.6047   -2.7429    0.0000 C   0  0  0  0  0  0  0  0  0
   -4.7762   -1.9360    0.0000 C   0  0  0  0  0  0  0  0  0
   -4.1631   -1.3839    0.0000 C   0  0  0  0  0  0  0  0  0
   -3.3785   -1.6389    0.0000 C   0  0  0  0  0  0  0  0  0
   -0.1857   -1.9007    0.0000 C   0  0  0  0  0  0  0  0  0
   -0.9002   -1.4882    0.0000 C   0  0  0  0  0  0  0  0  0
   -0.9002   -0.6632    0.0000 C   0  0  0  0  0  0  0  0  0
   -0.1857   -0.2507    0.0000 N   0  0  0  0  0  0  0  0  0
    0.5288   -0.6632    0.0000 C   0  0  0  0  0  0  0  0  0
    0.5288   -1.4882    0.0000 C   0  0  0  0  0  0  0  0  0
   -0.1857    0.5743    0.0000 C   0  0  0  0  0  0  0  0  0
    0.5288    0.9868    0.0000 C   0  0  0  0  0  0  0  0  0
    0.5288    1.8118    0.0000 C   0  0  0  0  0  0  0  0  0
    1.2433    2.2243    0.0000 C   0  0  0  0  0  0  0  0  0
    1.9577    1.8118    0.0000 C   0  0  0  0  0  0  0  0  0
    1.9577    0.9868    0.0000 C   0  0  0  0  0  0  0  0  0
    1.2433    0.5743    0.0000 C   0  0  0  0  0  0  0  0  0
  1  2  4  0  0  0  0
  1  5  4  0  0  0  0
  1 14  1  0  0  0  0
  2  3  4  0  0  0  0
  3  4  4  0  0  0  0
  4  5  4  0  0  0  0
  5  6  1  0  0  0  0
  6  7  3  0  0  0  0
  7  8  1  0  0  0  0
  8  9  4  0  0  0  0
  8 13  4  0  0  0  0
  9 10  4  0  0  0  0
 10 11  4  0  0  0  0
 11 12  4  0  0  0  0
 12 13  4  0  0  0  0
 14 15  1  0  0  0  0
 14 19  1  0  0  0  0
 15 16  1  0  0  0  0
 16 17  1  0  0  0  0
 17 18  1  0  0  0  0
 17 20  1  0  0  0  0
 18 19  1  0  0  0  0
 20 21  1  0  0  0  0
 21 22  4  0  0  0  0
 21 26  4  0  0  0  0
 22 23  4  0  0  0  0
 23 24  4  0  0  0  0
 24 25  4  0  0  0  0
 25 26  4  0  0  0  0
M  END
>  <Name_Molregno>
174531

>  <DOPAMINE D2>
5.04

>  <DOPAMINE D3>
5.06

>  <DOPAMINE D4>
5.48

$$$$
174532
  Marvin  02231216192D 0   1.00000     0.00000     0

 23 26  0  0  0  0  0  0  0  0999 V2000
    5.6522   -1.2992    0.0000 O   0  0  0  0  0  0  0  0  0
    5.3973   -2.0838    0.0000 C   0  0  0  0  0  0  0  0  0
    4.5723   -2.0838    0.0000 N   0  0  0  0  0  0  0  0  0
    4.3173   -1.2992    0.0000 C   0  0  0  0  0  0  0  0  0
    4.9848   -0.8143    0.0000 C   0  0  0  0  0  0  0  0  0
    4.9848    0.0107    0.0000 C   0  0  0  0  0  0  0  0  0
    4.3173    0.4956    0.0000 N   0  0  0  0  0  0  0  0  0
    4.5723    1.2802    0.0000 C   0  0  0  0  0  0  0  0  0
    5.3973    1.2802    0.0000 C   0  0  0  0  0  0  0  0  0
    5.6522    0.4956    0.0000 C   0  0  0  0  0  0  0  0  0
    3.5327    0.2407    0.0000 C   0  0  0  0  0  0  0  0  0
    3.3612   -0.5663    0.0000 C   0  0  0  0  0  0  0  0  0
    2.5766   -0.8212    0.0000 C   0  0  0  0  0  0  0  0  0
    1.9635   -0.2692    0.0000 N   0  0  0  0  0  0  0  0  0
    2.1350    0.5378    0.0000 C   0  0  0  0  0  0  0  0  0
    2.9196    0.7927    0.0000 C   0  0  0  0  0  0  0  0  0
    1.1788   -0.5241    0.0000 C   0  0  0  0  0  0  0  0  0
    0.5658    0.0279    0.0000 C   0  0  0  0  0  0  0  0  0
   -0.2189   -0.2270    0.0000 C   0  0  0  0  0  0  0  0  0
   -0.8320    0.3250    0.0000 C   0  0  0  0  0  0  0  0  0
   -0.6604    1.1320    0.0000 C   0  0  0  0  0  0  0  0  0
    0.1242    1.3869    0.0000 C   0  0  0  0  0  0  0  0  0
    0.7373    0.8349    0.0000 C   0  0  0  0  0  0  0  0  0
  1  2  4  0  0  0  0
  1  5  4  0  0  0  0
  2  3  4  0  0  0  0
  3  4  4  0  0  0  0
  4  5  4  0  0  0  0
  5  6  1  0  0  0  0
  6  7  4  0  0  0  0
  6 10  4  0  0  0  0
  7  8  4  0  0  0  0
  7 11  1  0  0  0  0
  8  9  4  0  0  0  0
  9 10  4  0  0  0  0
 11 12  1  0  0  0  0
 11 16  1  0  0  0  0
 12 13  1  0  0  0  0
 13 14  1  0  0  0  0
 14 15  1  0  0  0  0
 14 17  1  0  0  0  0
 15 16  1  0  0  0  0
 17 18  1  0  0  0  0
 18 19  4  0  0  0  0
 18 23  4  0  0  0  0
 19 20  4  0  0  0  0
 20 21  4  0  0  0  0
 21 22  4  0  0  0  0
 22 23  4  0  0  0  0
M  END
>  <Name_Molregno>
174532

>  <DOPAMINE D2>
6.35

>  <DOPAMINE D3>
6.11

>  <DOPAMINE D4>
7.2

$$$$
174562
  Marvin  02231216192D 0   1.00000     0.00000     0

 20 22  0  0  0  0  0  0  0  0999 V2000
    0.1068    2.3658    0.0000 O   0  0  0  0  0  0  0  0  0
    0.8213    1.9533    0.0000 C   0  0  0  0  0  0  0  0  0
    0.8213    1.1283    0.0000 C   0  0  0  0  0  0  0  0  0
    1.4887    0.6434    0.0000 N   0  0  0  0  0  0  0  0  0
    1.2338   -0.1413    0.0000 C   0  0  0  0  0  0  0  0  0
    0.4088   -0.1413    0.0000 C   0  0  0  0  0  0  0  0  0
    0.1538    0.6434    0.0000 C   0  0  0  0  0  0  0  0  0
    2.2733    0.8983    0.0000 C   0  0  0  0  0  0  0  0  0
    2.4449    1.7053    0.0000 C   0  0  0  0  0  0  0  0  0
    3.2295    1.9602    0.0000 C   0  0  0  0  0  0  0  0  0
    3.8426    1.4082    0.0000 N   0  0  0  0  0  0  0  0  0
    3.6710    0.6012    0.0000 C   0  0  0  0  0  0  0  0  0
    2.8864    0.3463    0.0000 C   0  0  0  0  0  0  0  0  0
    4.6272    1.6631    0.0000 C   0  0  0  0  0  0  0  0  0
    5.2403    1.1111    0.0000 C   0  0  0  0  0  0  0  0  0
    6.0249    1.3660    0.0000 C   0  0  0  0  0  0  0  0  0
    6.6380    0.8140    0.0000 C   0  0  0  0  0  0  0  0  0
    6.4665    0.0070    0.0000 C   0  0  0  0  0  0  0  0  0
    5.6819   -0.2479    0.0000 C   0  0  0  0  0  0  0  0  0
    5.0688    0.3041    0.0000 C   0  0  0  0  0  0  0  0  0
  1  2  2  0  0  0  0
  2  3  1  0  0  0  0
  3  4  4  0  0  0  0
  3  7  4  0  0  0  0
  4  5  4  0  0  0  0
  4  8  1  0  0  0  0
  5  6  4  0  0  0  0
  6  7  4  0  0  0  0
  8  9  1  0  0  0  0
  8 13  1  0  0  0  0
  9 10  1  0  0  0  0
 10 11  1  0  0  0  0
 11 12  1  0  0  0  0
 11 14  1  0  0  0  0
 12 13  1  0  0  0  0
 14 15  1  0  0  0  0
 15 16  4  0  0  0  0
 15 20  4  0  0  0  0
 16 17  4  0  0  0  0
 17 18  4  0  0  0  0
 18 19  4  0  0  0  0
 19 20  4  0  0  0  0
M  END
>  <Name_Molregno>
174562

>  <DOPAMINE D2>
5.84

>  <DOPAMINE D3>
5.6

>  <DOPAMINE D4>
6.7

$$$$
174566
  Marvin  02231216192D 0   1.00000     0.00000     0

 24 26  0  0  0  0  0  0  0  0999 V2000
   -1.1493   -0.9433    0.0000 N   0  0  0  0  0  0  0  0  0
   -0.4818   -1.4283    0.0000 C   0  0  0  0  0  0  0  0  0
   -0.7368   -2.2129    0.0000 C   0  0  0  0  0  0  0  0  0
   -1.5618   -2.2129    0.0000 C   0  0  0  0  0  0  0  0  0
   -1.8167   -1.4283    0.0000 C   0  0  0  0  0  0  0  0  0
   -0.2518   -2.8803    0.0000 C   0  0  0  0  0  0  0  0  0
   -0.5874   -3.6340    0.0000 C   0  0  0  0  0  0  0  0  0
   -0.1025   -4.3014    0.0000 C   0  0  0  0  0  0  0  0  0
    0.3824   -4.9689    0.0000 N   0  0  0  0  0  0  0  0  0
   -1.4079   -3.7202    0.0000 C   0  0  0  0  0  0  0  0  0
   -2.2284   -3.8065    0.0000 N   0  0  0  0  0  0  0  0  0
   -1.1493   -0.1183    0.0000 C   0  0  0  0  0  0  0  0  0
   -1.8637    0.2942    0.0000 C   0  0  0  0  0  0  0  0  0
   -1.8637    1.1192    0.0000 C   0  0  0  0  0  0  0  0  0
   -1.1493    1.5317    0.0000 N   0  0  0  0  0  0  0  0  0
   -0.4348    1.1192    0.0000 C   0  0  0  0  0  0  0  0  0
   -0.4348    0.2942    0.0000 C   0  0  0  0  0  0  0  0  0
   -1.1493    2.3567    0.0000 C   0  0  0  0  0  0  0  0  0
   -0.4348    2.7692    0.0000 C   0  0  0  0  0  0  0  0  0
   -0.4348    3.5942    0.0000 C   0  0  0  0  0  0  0  0  0
    0.2797    4.0067    0.0000 C   0  0  0  0  0  0  0  0  0
    0.9941    3.5942    0.0000 C   0  0  0  0  0  0  0  0  0
    0.9941    2.7692    0.0000 C   0  0  0  0  0  0  0  0  0
    0.2797    2.3567    0.0000 C   0  0  0  0  0  0  0  0  0
  1  2  4  0  0  0  0
  1  5  4  0  0  0  0
  1 12  1  0  0  0  0
  2  3  4  0  0  0  0
  3  4  4  0  0  0  0
  3  6  1  0  0  0  0
  4  5  4  0  0  0  0
  6  7  2  0  0  0  0
  7  8  1  0  0  0  0
  7 10  1  0  0  0  0
  8  9  3  0  0  0  0
 10 11  3  0  0  0  0
 12 13  1  0  0  0  0
 12 17  1  0  0  0  0
 13 14  1  0  0  0  0
 14 15  1  0  0  0  0
 15 16  1  0  0  0  0
 15 18  1  0  0  0  0
 16 17  1  0  0  0  0
 18 19  1  0  0  0  0
 19 20  4  0  0  0  0
 19 24  4  0  0  0  0
 20 21  4  0  0  0  0
 21 22  4  0  0  0  0
 22 23  4  0  0  0  0
 23 24  4  0  0  0  0
M  END
>  <Name_Molregno>
174566

>  <DOPAMINE D2>
4.81

>  <DOPAMINE D3>
5.15

>  <DOPAMINE D4>
6.64

$$$$
174594
  Marvin  02231216192D 0   1.00000     0.00000     0

 23 26  0  0  0  0  0  0  0  0999 V2000
    2.3802   -3.7897    0.0000 O   0  0  0  0  0  0  0  0  0
    2.1252   -4.5743    0.0000 C   0  0  0  0  0  0  0  0  0
    1.3002   -4.5743    0.0000 N   0  0  0  0  0  0  0  0  0
    1.0453   -3.7897    0.0000 C   0  0  0  0  0  0  0  0  0
    1.7127   -3.3047    0.0000 C   0  0  0  0  0  0  0  0  0
    1.7127   -2.4797    0.0000 C   0  0  0  0  0  0  0  0  0
    1.0453   -1.9948    0.0000 C   0  0  0  0  0  0  0  0  0
    1.3002   -1.2102    0.0000 C   0  0  0  0  0  0  0  0  0
    2.1252   -1.2102    0.0000 N   0  0  0  0  0  0  0  0  0
    2.3802   -1.9948    0.0000 C   0  0  0  0  0  0  0  0  0
    2.6102   -0.5428    0.0000 C   0  0  0  0  0  0  0  0  0
    2.2746    0.2109    0.0000 C   0  0  0  0  0  0  0  0  0
    2.7595    0.8784    0.0000 C   0  0  0  0  0  0  0  0  0
    3.5800    0.7921    0.0000 N   0  0  0  0  0  0  0  0  0
    3.9156    0.0384    0.0000 C   0  0  0  0  0  0  0  0  0
    3.4306   -0.6290    0.0000 C   0  0  0  0  0  0  0  0  0
    4.0649    1.4596    0.0000 C   0  0  0  0  0  0  0  0  0
    4.8854    1.3733    0.0000 C   0  0  0  0  0  0  0  0  0
    5.3703    2.0408    0.0000 C   0  0  0  0  0  0  0  0  0
    6.1908    1.9545    0.0000 C   0  0  0  0  0  0  0  0  0
    6.5264    1.2009    0.0000 C   0  0  0  0  0  0  0  0  0
    6.0415    0.5334    0.0000 C   0  0  0  0  0  0  0  0  0
    5.2210    0.6197    0.0000 C   0  0  0  0  0  0  0  0  0
  1  2  4  0  0  0  0
  1  5  4  0  0  0  0
  2  3  4  0  0  0  0
  3  4  4  0  0  0  0
  4  5  4  0  0  0  0
  5  6  1  0  0  0  0
  6  7  4  0  0  0  0
  6 10  4  0  0  0  0
  7  8  4  0  0  0  0
  8  9  4  0  0  0  0
  9 10  4  0  0  0  0
  9 11  1  0  0  0  0
 11 12  1  0  0  0  0
 11 16  1  0  0  0  0
 12 13  1  0  0  0  0
 13 14  1  0  0  0  0
 14 15  1  0  0  0  0
 14 17  1  0  0  0  0
 15 16  1  0  0  0  0
 17 18  1  0  0  0  0
 18 19  4  0  0  0  0
 18 23  4  0  0  0  0
 19 20  4  0  0  0  0
 20 21  4  0  0  0  0
 21 22  4  0  0  0  0
 22 23  4  0  0  0  0
M  END
>  <Name_Molregno>
174594

>  <DOPAMINE D2>
5.48

>  <DOPAMINE D3>
5.17

>  <DOPAMINE D4>
6.89

$$$$
174616
  Marvin  02231216192D 0   1.00000     0.00000     0

 18 20  0  0  0  0  0  0  0  0999 V2000
   -2.3255   -1.3945    0.0000 N   0  0  0  0  0  0  0  0  0
   -1.6581   -1.8794    0.0000 C   0  0  0  0  0  0  0  0  0
   -1.9130   -2.6641    0.0000 C   0  0  0  0  0  0  0  0  0
   -2.7380   -2.6641    0.0000 C   0  0  0  0  0  0  0  0  0
   -2.9929   -1.8794    0.0000 C   0  0  0  0  0  0  0  0  0
   -2.3255   -0.5695    0.0000 C   0  0  0  0  0  0  0  0  0
   -3.0400   -0.1570    0.0000 C   0  0  0  0  0  0  0  0  0
   -3.0400    0.6680    0.0000 C   0  0  0  0  0  0  0  0  0
   -2.3255    1.0805    0.0000 N   0  0  0  0  0  0  0  0  0
   -1.6110    0.6680    0.0000 C   0  0  0  0  0  0  0  0  0
   -1.6110   -0.1570    0.0000 C   0  0  0  0  0  0  0  0  0
   -2.3255    1.9055    0.0000 C   0  0  0  0  0  0  0  0  0
   -1.6110    2.3180    0.0000 C   0  0  0  0  0  0  0  0  0
   -1.6110    3.1430    0.0000 C   0  0  0  0  0  0  0  0  0
   -0.8966    3.5555    0.0000 C   0  0  0  0  0  0  0  0  0
   -0.1821    3.1430    0.0000 C   0  0  0  0  0  0  0  0  0
   -0.1821    2.3180    0.0000 C   0  0  0  0  0  0  0  0  0
   -0.8966    1.9055    0.0000 C   0  0  0  0  0  0  0  0  0
  1  2  4  0  0  0  0
  1  5  4  0  0  0  0
  1  6  1  0  0  0  0
  2  3  4  0  0  0  0
  3  4  4  0  0  0  0
  4  5  4  0  0  0  0
  6  7  1  0  0  0  0
  6 11  1  0  0  0  0
  7  8  1  0  0  0  0
  8  9  1  0  0  0  0
  9 10  1  0  0  0  0
  9 12  1  0  0  0  0
 10 11  1  0  0  0  0
 12 13  1  0  0  0  0
 13 14  4  0  0  0  0
 13 18  4  0  0  0  0
 14 15  4  0  0  0  0
 15 16  4  0  0  0  0
 16 17  4  0  0  0  0
 17 18  4  0  0  0  0
M  END
>  <Name_Molregno>
174616

>  <DOPAMINE D2>
5.04

>  <DOPAMINE D3>
4.82

>  <DOPAMINE D4>
5.96

$$$$
177779
  Marvin  02231216192D 0   1.00000     0.00000     0

 22 24  0  0  0  0  0  0  0  0999 V2000
   -4.6941   -4.7980    0.0000 N   0  0  0  0  0  0  0  0  0
   -4.6941   -3.9730    0.0000 C   0  0  0  0  0  0  0  0  0
   -3.9796   -3.5605    0.0000 C   0  0  0  0  0  0  0  0  0
   -3.2651   -3.9730    0.0000 C   0  0  0  0  0  0  0  0  0
   -3.2651   -4.7980    0.0000 C   0  0  0  0  0  0  0  0  0
   -3.9796   -5.2105    0.0000 C   0  0  0  0  0  0  0  0  0
   -3.9796   -2.7355    0.0000 C   0  0  0  0  0  0  0  0  0
   -3.9796   -1.9105    0.0000 C   0  0  0  0  0  0  0  0  0
   -3.9796   -1.0855    0.0000 C   0  0  0  0  0  0  0  0  0
   -4.6941   -0.6730    0.0000 C   0  0  0  0  0  0  0  0  0
   -4.6941    0.1520    0.0000 N   0  0  0  0  0  0  0  0  0
   -5.4085    0.5645    0.0000 C   0  0  0  0  0  0  0  0  0
   -5.4085    1.3895    0.0000 C   0  0  0  0  0  0  0  0  0
   -4.6941    1.8020    0.0000 C   0  0  0  0  0  0  0  0  0
   -3.9796    1.3895    0.0000 C   0  0  0  0  0  0  0  0  0
   -3.9796    0.5645    0.0000 C   0  0  0  0  0  0  0  0  0
   -4.6941    2.6270    0.0000 C   0  0  0  0  0  0  0  0  0
   -5.4085    3.0395    0.0000 C   0  0  0  0  0  0  0  0  0
   -5.4085    3.8645    0.0000 C   0  0  0  0  0  0  0  0  0
   -4.6941    4.2770    0.0000 C   0  0  0  0  0  0  0  0  0
   -3.9796    3.8645    0.0000 C   0  0  0  0  0  0  0  0  0
   -3.9796    3.0395    0.0000 C   0  0  0  0  0  0  0  0  0
  1  2  4  0  0  0  0
  1  6  4  0  0  0  0
  2  3  4  0  0  0  0
  3  4  4  0  0  0  0
  3  7  1  0  0  0  0
  4  5  4  0  0  0  0
  5  6  4  0  0  0  0
  7  8  3  0  0  0  0
  8  9  1  0  0  0  0
  9 10  1  0  0  0  0
 10 11  1  0  0  0  0
 11 12  1  0  0  0  0
 11 16  1  0  0  0  0
 12 13  1  0  0  0  0
 13 14  1  0  0  0  0
 14 15  2  0  0  0  0
 14 17  1  0  0  0  0
 15 16  1  0  0  0  0
 17 18  4  0  0  0  0
 17 22  4  0  0  0  0
 18 19  4  0  0  0  0
 19 20  4  0  0  0  0
 20 21  4  0  0  0  0
 21 22  4  0  0  0  0
M  END
>  <Name_Molregno>
177779

>  <DOPAMINE D4>
6.17

$$$$
177840
  Marvin  02231216192D 0   1.00000     0.00000     0

 23 25  0  0  0  0  0  0  0  0999 V2000
    4.4740   -3.7282    0.0000 N   0  0  0  0  0  0  0  0  0
    4.4740   -4.5532    0.0000 C   0  0  0  0  0  0  0  0  0
    3.7595   -4.9657    0.0000 C   0  0  0  0  0  0  0  0  0
    3.7595   -5.7907    0.0000 N   0  0  0  0  0  0  0  0  0
    3.0450   -4.5532    0.0000 C   0  0  0  0  0  0  0  0  0
    3.0450   -3.7282    0.0000 C   0  0  0  0  0  0  0  0  0
    3.7595   -3.3157    0.0000 C   0  0  0  0  0  0  0  0  0
    3.7595   -2.4907    0.0000 C   0  0  0  0  0  0  0  0  0
    3.7595   -1.6657    0.0000 C   0  0  0  0  0  0  0  0  0
    3.7595   -0.8407    0.0000 C   0  0  0  0  0  0  0  0  0
    3.0450   -0.4282    0.0000 C   0  0  0  0  0  0  0  0  0
    3.0450    0.3968    0.0000 N   0  0  0  0  0  0  0  0  0
    2.3306    0.8093    0.0000 C   0  0  0  0  0  0  0  0  0
    2.3306    1.6343    0.0000 C   0  0  0  0  0  0  0  0  0
    3.0450    2.0468    0.0000 C   0  0  0  0  0  0  0  0  0
    3.7595    1.6343    0.0000 C   0  0  0  0  0  0  0  0  0
    3.7595    0.8093    0.0000 C   0  0  0  0  0  0  0  0  0
    3.0450    2.8718    0.0000 C   0  0  0  0  0  0  0  0  0
    2.3306    3.2843    0.0000 C   0  0  0  0  0  0  0  0  0
    2.3306    4.1093    0.0000 C   0  0  0  0  0  0  0  0  0
    3.0450    4.5218    0.0000 C   0  0  0  0  0  0  0  0  0
    3.7595    4.1093    0.0000 C   0  0  0  0  0  0  0  0  0
    3.7595    3.2843    0.0000 C   0  0  0  0  0  0  0  0  0
  1  2  4  0  0  0  0
  1  7  4  0  0  0  0
  2  3  4  0  0  0  0
  3  4  1  0  0  0  0
  3  5  4  0  0  0  0
  5  6  4  0  0  0  0
  6  7  4  0  0  0  0
  7  8  1  0  0  0  0
  8  9  3  0  0  0  0
  9 10  1  0  0  0  0
 10 11  1  0  0  0  0
 11 12  1  0  0  0  0
 12 13  1  0  0  0  0
 12 17  1  0  0  0  0
 13 14  1  0  0  0  0
 14 15  1  0  0  0  0
 15 16  2  0  0  0  0
 15 18  1  0  0  0  0
 16 17  1  0  0  0  0
 18 19  4  0  0  0  0
 18 23  4  0  0  0  0
 19 20  4  0  0  0  0
 20 21  4  0  0  0  0
 21 22  4  0  0  0  0
 22 23  4  0  0  0  0
M  END
>  <Name_Molregno>
177840

>  <DOPAMINE D4>
6.43

$$$$
177893
  Marvin  02231216192D 0   1.00000     0.00000     0

 23 25  0  0  0  0  0  0  0  0999 V2000
   -3.8486    3.9880    0.0000 N   0  0  0  0  0  0  0  0  0
   -3.8486    3.1630    0.0000 C   0  0  0  0  0  0  0  0  0
   -4.5631    2.7505    0.0000 C   0  0  0  0  0  0  0  0  0
   -5.2775    3.1630    0.0000 C   0  0  0  0  0  0  0  0  0
   -5.2775    3.9880    0.0000 C   0  0  0  0  0  0  0  0  0
   -4.5631    4.4005    0.0000 C   0  0  0  0  0  0  0  0  0
   -4.5631    5.2255    0.0000 N   0  0  0  0  0  0  0  0  0
   -4.5631    1.9255    0.0000 C   0  0  0  0  0  0  0  0  0
   -4.5631    1.1005    0.0000 C   0  0  0  0  0  0  0  0  0
   -4.5631    0.2755    0.0000 C   0  0  0  0  0  0  0  0  0
   -3.8486   -0.1370    0.0000 C   0  0  0  0  0  0  0  0  0
   -3.8486   -0.9620    0.0000 N   0  0  0  0  0  0  0  0  0
   -3.1341   -1.3745    0.0000 C   0  0  0  0  0  0  0  0  0
   -3.1341   -2.1995    0.0000 C   0  0  0  0  0  0  0  0  0
   -3.8486   -2.6120    0.0000 C   0  0  0  0  0  0  0  0  0
   -4.5631   -2.1995    0.0000 C   0  0  0  0  0  0  0  0  0
   -4.5631   -1.3745    0.0000 C   0  0  0  0  0  0  0  0  0
   -3.8486   -3.4370    0.0000 C   0  0  0  0  0  0  0  0  0
   -3.1341   -3.8495    0.0000 C   0  0  0  0  0  0  0  0  0
   -3.1341   -4.6745    0.0000 C   0  0  0  0  0  0  0  0  0
   -3.8486   -5.0870    0.0000 C   0  0  0  0  0  0  0  0  0
   -4.5631   -4.6745    0.0000 C   0  0  0  0  0  0  0  0  0
   -4.5631   -3.8495    0.0000 C   0  0  0  0  0  0  0  0  0
  1  2  4  0  0  0  0
  1  6  4  0  0  0  0
  2  3  4  0  0  0  0
  3  4  4  0  0  0  0
  3  8  1  0  0  0  0
  4  5  4  0  0  0  0
  5  6  4  0  0  0  0
  6  7  1  0  0  0  0
  8  9  3  0  0  0  0
  9 10  1  0  0  0  0
 10 11  1  0  0  0  0
 11 12  1  0  0  0  0
 12 13  1  0  0  0  0
 12 17  1  0  0  0  0
 13 14  1  0  0  0  0
 14 15  1  0  0  0  0
 15 16  2  0  0  0  0
 15 18  1  0  0  0  0
 16 17  1  0  0  0  0
 18 19  4  0  0  0  0
 18 23  4  0  0  0  0
 19 20  4  0  0  0  0
 20 21  4  0  0  0  0
 21 22  4  0  0  0  0
 22 23  4  0  0  0  0
M  END
>  <Name_Molregno>
177893

>  <DOPAMINE D4>
6.56

$$$$
178039
  Marvin  02231216192D 0   1.00000     0.00000     0

 23 25  0  0  0  0  0  0  0  0999 V2000
    4.9570    5.9277    0.0000 N   0  0  0  0  0  0  0  0  0
    4.9570    5.1027    0.0000 C   0  0  0  0  0  0  0  0  0
    5.6715    4.6902    0.0000 C   0  0  0  0  0  0  0  0  0
    5.6715    3.8652    0.0000 C   0  0  0  0  0  0  0  0  0
    4.9570    3.4527    0.0000 C   0  0  0  0  0  0  0  0  0
    4.2425    3.8652    0.0000 C   0  0  0  0  0  0  0  0  0
    4.2425    4.6902    0.0000 C   0  0  0  0  0  0  0  0  0
    4.9570    2.6277    0.0000 C   0  0  0  0  0  0  0  0  0
    4.9570    1.8027    0.0000 C   0  0  0  0  0  0  0  0  0
    4.9570    0.9777    0.0000 C   0  0  0  0  0  0  0  0  0
    5.6715    0.5652    0.0000 C   0  0  0  0  0  0  0  0  0
    5.6715   -0.2598    0.0000 N   0  0  0  0  0  0  0  0  0
    6.3860   -0.6723    0.0000 C   0  0  0  0  0  0  0  0  0
    6.3860   -1.4973    0.0000 C   0  0  0  0  0  0  0  0  0
    5.6715   -1.9098    0.0000 C   0  0  0  0  0  0  0  0  0
    4.9570   -1.4973    0.0000 C   0  0  0  0  0  0  0  0  0
    4.9570   -0.6723    0.0000 C   0  0  0  0  0  0  0  0  0
    5.6715   -2.7348    0.0000 C   0  0  0  0  0  0  0  0  0
    6.3860   -3.1473    0.0000 C   0  0  0  0  0  0  0  0  0
    6.3860   -3.9723    0.0000 C   0  0  0  0  0  0  0  0  0
    5.6715   -4.3848    0.0000 C   0  0  0  0  0  0  0  0  0
    4.9570   -3.9723    0.0000 C   0  0  0  0  0  0  0  0  0
    4.9570   -3.1473    0.0000 C   0  0  0  0  0  0  0  0  0
  1  2  1  0  0  0  0
  2  3  4  0  0  0  0
  2  7  4  0  0  0  0
  3  4  4  0  0  0  0
  4  5  4  0  0  0  0
  5  6  4  0  0  0  0
  5  8  1  0  0  0  0
  6  7  4  0  0  0  0
  8  9  3  0  0  0  0
  9 10  1  0  0  0  0
 10 11  1  0  0  0  0
 11 12  1  0  0  0  0
 12 13  1  0  0  0  0
 12 17  1  0  0  0  0
 13 14  1  0  0  0  0
 14 15  1  0  0  0  0
 15 16  2  0  0  0  0
 15 18  1  0  0  0  0
 16 17  1  0  0  0  0
 18 19  4  0  0  0  0
 18 23  4  0  0  0  0
 19 20  4  0  0  0  0
 20 21  4  0  0  0  0
 21 22  4  0  0  0  0
 22 23  4  0  0  0  0
M  END
>  <Name_Molregno>
178039

>  <DOPAMINE D4>
6.64

$$$$
178059
  Marvin  02231216192D 0   1.00000     0.00000     0

 22 24  0  0  0  0  0  0  0  0999 V2000
   -4.3804   -5.3484    0.0000 N   0  0  0  0  0  0  0  0  0
   -5.0949   -4.9359    0.0000 C   0  0  0  0  0  0  0  0  0
   -5.0949   -4.1109    0.0000 C   0  0  0  0  0  0  0  0  0
   -4.3804   -3.6984    0.0000 C   0  0  0  0  0  0  0  0  0
   -3.6660   -4.1109    0.0000 C   0  0  0  0  0  0  0  0  0
   -3.6660   -4.9359    0.0000 C   0  0  0  0  0  0  0  0  0
   -4.3804   -2.8734    0.0000 C   0  0  0  0  0  0  0  0  0
   -4.3804   -2.0484    0.0000 C   0  0  0  0  0  0  0  0  0
   -4.3804   -1.2234    0.0000 C   0  0  0  0  0  0  0  0  0
   -5.0949   -0.8109    0.0000 C   0  0  0  0  0  0  0  0  0
   -5.0949    0.0141    0.0000 N   0  0  0  0  0  0  0  0  0
   -5.8094    0.4266    0.0000 C   0  0  0  0  0  0  0  0  0
   -5.8094    1.2516    0.0000 C   0  0  0  0  0  0  0  0  0
   -5.0949    1.6641    0.0000 C   0  0  0  0  0  0  0  0  0
   -4.3804    1.2516    0.0000 C   0  0  0  0  0  0  0  0  0
   -4.3804    0.4266    0.0000 C   0  0  0  0  0  0  0  0  0
   -5.0949    2.4891    0.0000 C   0  0  0  0  0  0  0  0  0
   -5.8094    2.9016    0.0000 C   0  0  0  0  0  0  0  0  0
   -5.8094    3.7266    0.0000 C   0  0  0  0  0  0  0  0  0
   -5.0949    4.1391    0.0000 C   0  0  0  0  0  0  0  0  0
   -4.3804    3.7266    0.0000 C   0  0  0  0  0  0  0  0  0
   -4.3804    2.9016    0.0000 C   0  0  0  0  0  0  0  0  0
  1  2  4  0  0  0  0
  1  6  4  0  0  0  0
  2  3  4  0  0  0  0
  3  4  4  0  0  0  0
  4  5  4  0  0  0  0
  4  7  1  0  0  0  0
  5  6  4  0  0  0  0
  7  8  3  0  0  0  0
  8  9  1  0  0  0  0
  9 10  1  0  0  0  0
 10 11  1  0  0  0  0
 11 12  1  0  0  0  0
 11 16  1  0  0  0  0
 12 13  1  0  0  0  0
 13 14  1  0  0  0  0
 14 15  2  0  0  0  0
 14 17  1  0  0  0  0
 15 16  1  0  0  0  0
 17 18  4  0  0  0  0
 17 22  4  0  0  0  0
 18 19  4  0  0  0  0
 19 20  4  0  0  0  0
 20 21  4  0  0  0  0
 21 22  4  0  0  0  0
M  END
>  <Name_Molregno>
178059

>  <DOPAMINE D4>
6.24

$$$$
178068
  Marvin  02231216192D 0   1.00000     0.00000     0

 32 35  0  0  0  0  0  0  0  0999 V2000
    3.7835    3.5848    0.0000 O   0  0  0  0  0  0  0  0  0
    3.0690    3.9973    0.0000 C   0  0  0  0  0  0  0  0  0
    3.7835    2.7598    0.0000 C   0  0  0  0  0  0  0  0  0
    4.4980    2.3473    0.0000 C   0  0  0  0  0  0  0  0  0
    4.4980    1.5223    0.0000 C   0  0  0  0  0  0  0  0  0
    3.7835    1.1098    0.0000 C   0  0  0  0  0  0  0  0  0
    3.7835    0.2848    0.0000 N   0  0  0  0  0  0  0  0  0
    4.4980   -0.1277    0.0000 C   0  0  0  0  0  0  0  0  0
    5.2124    0.2848    0.0000 O   0  0  0  0  0  0  0  0  0
    4.4980   -0.9527    0.0000 N   0  0  0  0  0  0  0  0  0
    5.2124   -1.3652    0.0000 C   0  0  0  0  0  0  0  0  0
    5.2124   -2.1902    0.0000 C   0  0  0  0  0  0  0  0  0
    4.4980   -2.6027    0.0000 N   0  0  0  0  0  0  0  0  0
    3.7835   -2.1902    0.0000 C   0  0  0  0  0  0  0  0  0
    3.7835   -1.3652    0.0000 C   0  0  0  0  0  0  0  0  0
    4.4980   -3.4277    0.0000 C   0  0  0  0  0  0  0  0  0
    5.2124   -3.8402    0.0000 C   0  0  0  0  0  0  0  0  0
    5.2124   -4.6652    0.0000 C   0  0  0  0  0  0  0  0  0
    4.4980   -5.0777    0.0000 C   0  0  0  0  0  0  0  0  0
    3.7835   -4.6652    0.0000 C   0  0  0  0  0  0  0  0  0
    3.7835   -3.8402    0.0000 C   0  0  0  0  0  0  0  0  0
    3.0690   -3.4277    0.0000 O   0  0  0  0  0  0  0  0  0
    2.3546   -3.8402    0.0000 C   0  0  0  0  0  0  0  0  0
    3.0690    1.5223    0.0000 C   0  0  0  0  0  0  0  0  0
    3.0690    2.3473    0.0000 C   0  0  0  0  0  0  0  0  0
    2.3546    2.7598    0.0000 N   0  0  0  0  0  0  0  0  0
    1.6401    2.3473    0.0000 C   0  0  0  0  0  0  0  0  0
    0.9256    2.7598    0.0000 C   0  0  0  0  0  0  0  0  0
    0.9256    3.5848    0.0000 N   0  0  0  0  0  0  0  0  0
    1.6401    3.9973    0.0000 C   0  0  0  0  0  0  0  0  0
    2.3546    3.5848    0.0000 C   0  0  0  0  0  0  0  0  0
    0.2111    3.9973    0.0000 C   0  0  0  0  0  0  0  0  0
  1  2  1  0  0  0  0
  1  3  1  0  0  0  0
  3  4  4  0  0  0  0
  3 25  4  0  0  0  0
  4  5  4  0  0  0  0
  5  6  4  0  0  0  0
  6  7  1  0  0  0  0
  6 24  4  0  0  0  0
  7  8  1  0  0  0  0
  8  9  2  0  0  0  0
  8 10  1  0  0  0  0
 10 11  1  0  0  0  0
 10 15  1  0  0  0  0
 11 12  1  0  0  0  0
 12 13  1  0  0  0  0
 13 14  1  0  0  0  0
 13 16  1  0  0  0  0
 14 15  1  0  0  0  0
 16 17  4  0  0  0  0
 16 21  4  0  0  0  0
 17 18  4  0  0  0  0
 18 19  4  0  0  0  0
 19 20  4  0  0  0  0
 20 21  4  0  0  0  0
 21 22  1  0  0  0  0
 22 23  1  0  0  0  0
 24 25  4  0  0  0  0
 25 26  1  0  0  0  0
 26 27  1  0  0  0  0
 26 31  1  0  0  0  0
 27 28  1  0  0  0  0
 28 29  1  0  0  0  0
 29 30  1  0  0  0  0
 29 32  1  0  0  0  0
 30 31  1  0  0  0  0
M  END
>  <Name_Molregno>
178068

>  <5-HT1A>
6.17

>  <5-HT1B>
8.44

>  <5-HT1D>
7.02

>  <5-HT2A>
5.17

>  <5-HT2C>
5.71

>  <5-HT6>
5.62

>  <5-HT7>
5.85

>  <DOPAMINE D1>
5

>  <DOPAMINE D2>
5

>  <DOPAMINE D3>
5

>  <DOPAMINE D4>
5

>  <DOPAMINE D5>
5

>  <HISTAMINE H1>
5

>  <Muscarinic acetylcholine receptor M1>
5

>  <Muscarinic acetylcholine receptor M2>
5

>  <Muscarinic acetylcholine receptor M3>
5

>  <Muscarinic acetylcholine receptor M4>
5

>  <Muscarinic acetylcholine receptor M5>
5

$$$$
178194
  Marvin  02231216192D 0   1.00000     0.00000     0

 17 18  0  0  1  0  0  0  0  0999 V2000
    1.5848    5.4307    0.0000 N   0  0  0  0  0  0  0  0  0
    1.5848    4.6057    0.0000 C   0  0  0  0  0  0  0  0  0
    1.5848    3.7807    0.0000 C   0  0  0  0  0  0  0  0  0
    2.2992    3.3682    0.0000 C   0  0  0  0  0  0  0  0  0
    2.2992    2.5432    0.0000 C   0  0  0  0  0  0  0  0  0
    1.5848    2.1307    0.0000 C   0  0  0  0  0  0  0  0  0
    0.8703    2.5432    0.0000 C   0  0  0  0  0  0  0  0  0
    0.8703    3.3682    0.0000 C   0  0  0  0  0  0  0  0  0
    3.0137    2.1307    0.0000 C   0  0  0  0  0  0  0  0  0
    3.7282    2.5432    0.0000 C   0  0  0  0  0  0  0  0  0
    4.4427    2.1307    0.0000 C   0  0  0  0  0  0  0  0  0
    4.4427    1.3057    0.0000 C   0  0  0  0  0  0  0  0  0
    3.7282    0.8932    0.0000 N   0  0  0  0  0  0  0  0  0
    3.0137    1.3057    0.0000 C   0  0  0  0  0  0  0  0  0
    3.7282    0.0682    0.0000 C   0  0  0  0  0  0  0  0  0
    3.0137   -0.3443    0.0000 C   0  0  0  0  0  0  0  0  0
    3.0137   -1.1693    0.0000 C   0  0  0  0  0  0  0  0  0
  1  2  3  0  0  0  0
  2  3  1  0  0  0  0
  3  4  4  0  0  0  0
  3  8  4  0  0  0  0
  4  5  4  0  0  0  0
  5  6  4  0  0  0  0
  5  9  1  0  0  0  0
  6  7  4  0  0  0  0
  7  8  4  0  0  0  0
  9 10  1  0  0  0  0
  9 14  1  0  0  0  0
 10 11  1  0  0  0  0
 11 12  1  0  0  0  0
 12 13  1  0  0  0  0
 13 14  1  0  0  0  0
 13 15  1  0  0  0  0
 15 16  1  0  0  0  0
 16 17  1  0  0  0  0
M  END
>  <Name_Molregno>
178194

>  <DOPAMINE D3>
6.22

>  <DOPAMINE D4>
6.03

$$$$
199111
  Marvin  02231216192D 0   1.00000     0.00000     0

 14 15  0  0  1  0  0  0  0  0999 V2000
   -0.1663    0.8600    0.0000 N   0  0  0  0  0  0  0  0  0
    0.5482    0.4475    0.0000 C   0  0  0  0  0  0  0  0  0
    1.2627    0.8600    0.0000 C   0  0  0  0  0  0  0  0  0
    1.2627    1.6850    0.0000 C   0  0  0  0  0  0  0  0  0
    1.9771    2.0975    0.0000 C   0  0  0  0  0  0  0  0  0
    2.6916    1.6850    0.0000 C   0  0  0  0  0  0  0  0  0
    2.6916    0.8600    0.0000 C   0  0  0  0  0  0  0  0  0
    1.9771    0.4475    0.0000 C   0  0  0  0  0  0  0  0  0
    1.9771   -0.3775    0.0000 N   0  0  0  0  0  0  0  0  0
    2.6916   -0.7900    0.0000 C   0  0  0  0  0  0  0  0  0
    2.6916   -1.6150    0.0000 C   0  0  0  0  0  0  0  0  0
    1.2627   -0.7900    0.0000 C   0  0  0  0  0  0  0  0  0
    0.5482    2.0975    0.0000 C   0  0  0  0  0  0  0  0  0
   -0.1663    1.6850    0.0000 C   0  0  0  0  0  0  0  0  0
  1  2  4  0  0  0  0
  1 14  4  0  0  0  0
  2  3  4  0  0  0  0
  3  4  4  0  0  0  0
  3  8  1  0  0  0  0
  4  5  1  0  0  0  0
  4 13  4  0  0  0  0
  5  6  1  0  0  0  0
  6  7  1  0  0  0  0
  7  8  1  0  0  0  0
  8  9  1  0  0  0  0
  9 10  1  0  0  0  0
  9 12  1  0  0  0  0
 10 11  1  0  0  0  0
 13 14  4  0  0  0  0
M  END
>  <Name_Molregno>
199111

>  <5-HT1A>
5

>  <5-HT1B>
5

>  <5-HT2C>
5

>  <5-HT3>
5

>  <5-HT5>
5

>  <5-HT6>
5

>  <5-HT7>
5

>  <Beta-1>
5

>  <Beta-2>
5

>  <DOPAMINE D1>
5

>  <DOPAMINE D2>
5

>  <DOPAMINE D3>
5

>  <DOPAMINE D4>
5

>  <DOPAMINE D5>
5

>  <HISTAMINE H1>
5

>  <HISTAMINE H2>
5

>  <Muscarinic acetylcholine receptor M1>
5

>  <Muscarinic acetylcholine receptor M2>
5

>  <Muscarinic acetylcholine receptor M3>
5

>  <Muscarinic acetylcholine receptor M4>
5

>  <Muscarinic acetylcholine receptor M5>
5

$$$$
206713
  Marvin  02231216192D 0   1.00000     0.00000     0

 30 33  0  0  0  0  0  0  0  0999 V2000
    0.6799    1.4485    0.0000 O   0  0  0  0  0  0  0  0  0
   -0.1271    1.6200    0.0000 C   0  0  0  0  0  0  0  0  0
   -0.5396    0.9055    0.0000 C   0  0  0  0  0  0  0  0  0
    0.0124    0.2924    0.0000 C   0  0  0  0  0  0  0  0  0
    0.7661    0.6280    0.0000 C   0  0  0  0  0  0  0  0  0
    1.4806    0.2155    0.0000 C   0  0  0  0  0  0  0  0  0
    1.4806   -0.6095    0.0000 O   0  0  0  0  0  0  0  0  0
    2.1951    0.6280    0.0000 N   0  0  0  0  0  0  0  0  0
    2.9095    0.2155    0.0000 C   0  0  0  0  0  0  0  0  0
    3.6240    0.6280    0.0000 C   0  0  0  0  0  0  0  0  0
    4.3385    0.2155    0.0000 C   0  0  0  0  0  0  0  0  0
    5.0529    0.6280    0.0000 C   0  0  0  0  0  0  0  0  0
    5.7674    0.2155    0.0000 N   0  0  0  0  0  0  0  0  0
    6.4819    0.6280    0.0000 C   0  0  0  0  0  0  0  0  0
    7.1963    0.2155    0.0000 C   0  0  0  0  0  0  0  0  0
    7.1963   -0.6095    0.0000 N   0  0  0  0  0  0  0  0  0
    6.4819   -1.0220    0.0000 C   0  0  0  0  0  0  0  0  0
    5.7674   -0.6095    0.0000 C   0  0  0  0  0  0  0  0  0
    7.9108   -1.0220    0.0000 C   0  0  0  0  0  0  0  0  0
    8.6253   -0.6095    0.0000 C   0  0  0  0  0  0  0  0  0
    9.3398   -1.0220    0.0000 C   0  0  0  0  0  0  0  0  0
    9.3398   -1.8470    0.0000 C   0  0  0  0  0  0  0  0  0
    8.6253   -2.2595    0.0000 C   0  0  0  0  0  0  0  0  0
    7.9108   -1.8470    0.0000 C   0  0  0  0  0  0  0  0  0
    7.1963   -2.2595    0.0000 O   0  0  0  0  0  0  0  0  0
    7.1963   -3.0845    0.0000 C   0  0  0  0  0  0  0  0  0
   -1.3646    0.9055    0.0000 C   0  0  0  0  0  0  0  0  0
   -1.7771    1.6200    0.0000 C   0  0  0  0  0  0  0  0  0
   -1.3646    2.3344    0.0000 C   0  0  0  0  0  0  0  0  0
   -0.5396    2.3344    0.0000 C   0  0  0  0  0  0  0  0  0
  1  2  4  0  0  0  0
  1  5  4  0  0  0  0
  2  3  4  0  0  0  0
  2 30  4  0  0  0  0
  3  4  4  0  0  0  0
  3 27  4  0  0  0  0
  4  5  4  0  0  0  0
  5  6  1  0  0  0  0
  6  7  2  0  0  0  0
  6  8  1  0  0  0  0
  8  9  1  0  0  0  0
  9 10  1  0  0  0  0
 10 11  1  0  0  0  0
 11 12  1  0  0  0  0
 12 13  1  0  0  0  0
 13 14  1  0  0  0  0
 13 18  1  0  0  0  0
 14 15  1  0  0  0  0
 15 16  1  0  0  0  0
 16 17  1  0  0  0  0
 16 19  1  0  0  0  0
 17 18  1  0  0  0  0
 19 20  4  0  0  0  0
 19 24  4  0  0  0  0
 20 21  4  0  0  0  0
 21 22  4  0  0  0  0
 22 23  4  0  0  0  0
 23 24  4  0  0  0  0
 24 25  1  0  0  0  0
 25 26  1  0  0  0  0
 27 28  4  0  0  0  0
 28 29  4  0  0  0  0
 29 30  4  0  0  0  0
M  END
>  <Name_Molregno>
206713

>  <DOPAMINE D2>
6.96

>  <DOPAMINE D3>
8.98

>  <DOPAMINE D4>
7.52

$$$$
207150
  Marvin  02231216192D 0   1.00000     0.00000     0

 30 33  0  0  0  0  0  0  0  0999 V2000
   -8.7727   -0.1050    0.0000 O   0  0  0  0  0  0  0  0  0
   -9.4871   -0.5175    0.0000 C   0  0  0  0  0  0  0  0  0
   -8.7727    0.7200    0.0000 C   0  0  0  0  0  0  0  0  0
   -9.4871    1.1325    0.0000 C   0  0  0  0  0  0  0  0  0
   -9.4871    1.9575    0.0000 C   0  0  0  0  0  0  0  0  0
   -8.7727    2.3700    0.0000 C   0  0  0  0  0  0  0  0  0
   -8.0582    1.9575    0.0000 C   0  0  0  0  0  0  0  0  0
   -8.0582    1.1325    0.0000 C   0  0  0  0  0  0  0  0  0
   -7.3437    0.7200    0.0000 N   0  0  0  0  0  0  0  0  0
   -6.6292    1.1325    0.0000 C   0  0  0  0  0  0  0  0  0
   -5.9148    0.7200    0.0000 C   0  0  0  0  0  0  0  0  0
   -5.9148   -0.1050    0.0000 N   0  0  0  0  0  0  0  0  0
   -6.6292   -0.5175    0.0000 C   0  0  0  0  0  0  0  0  0
   -7.3437   -0.1050    0.0000 C   0  0  0  0  0  0  0  0  0
   -5.2003   -0.5175    0.0000 C   0  0  0  0  0  0  0  0  0
   -4.4858   -0.1050    0.0000 C   0  0  0  0  0  0  0  0  0
   -3.7714   -0.5175    0.0000 C   0  0  0  0  0  0  0  0  0
   -3.0569   -0.1050    0.0000 C   0  0  0  0  0  0  0  0  0
   -2.3424   -0.5175    0.0000 N   0  0  0  0  0  0  0  0  0
   -1.6279   -0.1050    0.0000 C   0  0  0  0  0  0  0  0  0
   -1.6279    0.7200    0.0000 O   0  0  0  0  0  0  0  0  0
   -0.9135   -0.5175    0.0000 C   0  0  0  0  0  0  0  0  0
   -0.8272   -1.3380    0.0000 N   0  0  0  0  0  0  0  0  0
   -0.0203   -1.5095    0.0000 C   0  0  0  0  0  0  0  0  0
    0.3922   -0.7951    0.0000 C   0  0  0  0  0  0  0  0  0
   -0.1598   -0.1820    0.0000 C   0  0  0  0  0  0  0  0  0
    1.2172   -0.7951    0.0000 C   0  0  0  0  0  0  0  0  0
    1.6297   -1.5095    0.0000 C   0  0  0  0  0  0  0  0  0
    1.2172   -2.2240    0.0000 C   0  0  0  0  0  0  0  0  0
    0.3922   -2.2240    0.0000 C   0  0  0  0  0  0  0  0  0
  1  2  1  0  0  0  0
  1  3  1  0  0  0  0
  3  4  4  0  0  0  0
  3  8  4  0  0  0  0
  4  5  4  0  0  0  0
  5  6  4  0  0  0  0
  6  7  4  0  0  0  0
  7  8  4  0  0  0  0
  8  9  1  0  0  0  0
  9 10  1  0  0  0  0
  9 14  1  0  0  0  0
 10 11  1  0  0  0  0
 11 12  1  0  0  0  0
 12 13  1  0  0  0  0
 12 15  1  0  0  0  0
 13 14  1  0  0  0  0
 15 16  1  0  0  0  0
 16 17  1  0  0  0  0
 17 18  1  0  0  0  0
 18 19  1  0  0  0  0
 19 20  1  0  0  0  0
 20 21  2  0  0  0  0
 20 22  1  0  0  0  0
 22 23  4  0  0  0  0
 22 26  4  0  0  0  0
 23 24  4  0  0  0  0
 24 25  4  0  0  0  0
 24 30  4  0  0  0  0
 25 26  4  0  0  0  0
 25 27  4  0  0  0  0
 27 28  4  0  0  0  0
 28 29  4  0  0  0  0
 29 30  4  0  0  0  0
M  STY  1   1 DAT
M  SAL   1  1  23
M  SDT   1 MRV_IMPLICIT_H                                        
M  SDD   1     0.0000    0.0000    DR    ALL  0       0  
M  SED   1 IMPL_H1
M  END
>  <Name_Molregno>
207150

>  <DOPAMINE D3>
9.49

>  <DOPAMINE D4>
6.32

$$$$
209616
  Marvin  02231216192D 0   1.00000     0.00000     0

 22 25  0  0  0  0  0  0  0  0999 V2000
    0.4466    0.9226    0.0000 N   0  0  0  0  0  0  0  0  0
    0.9610    0.2776    0.0000 C   0  0  0  0  0  0  0  0  0
    0.7774   -0.5267    0.0000 C   0  0  0  0  0  0  0  0  0
    0.0341   -0.8847    0.0000 C   0  0  0  0  0  0  0  0  0
   -0.7092   -0.5267    0.0000 C   0  0  0  0  0  0  0  0  0
   -0.8927    0.2776    0.0000 C   0  0  0  0  0  0  0  0  0
   -1.6811    0.5208    0.0000 C   0  0  0  0  0  0  0  0  0
   -2.2859   -0.0404    0.0000 C   0  0  0  0  0  0  0  0  0
   -2.1023   -0.8447    0.0000 C   0  0  0  0  0  0  0  0  0
   -1.3139   -1.0879    0.0000 C   0  0  0  0  0  0  0  0  0
   -0.3784    0.9226    0.0000 C   0  0  0  0  0  0  0  0  0
   -0.7363    1.6659    0.0000 N   0  0  0  0  0  0  0  0  0
   -1.5590    1.7276    0.0000 C   0  0  0  0  0  0  0  0  0
   -1.9170    2.4709    0.0000 C   0  0  0  0  0  0  0  0  0
   -1.4522    3.1525    0.0000 N   0  0  0  0  0  0  0  0  0
   -0.6295    3.0909    0.0000 C   0  0  0  0  0  0  0  0  0
   -0.2716    2.3476    0.0000 C   0  0  0  0  0  0  0  0  0
   -1.8102    3.8958    0.0000 C   0  0  0  0  0  0  0  0  0
    1.3822   -1.0879    0.0000 C   0  0  0  0  0  0  0  0  0
    2.1706   -0.8447    0.0000 C   0  0  0  0  0  0  0  0  0
    2.3541   -0.0404    0.0000 C   0  0  0  0  0  0  0  0  0
    1.7494    0.5208    0.0000 C   0  0  0  0  0  0  0  0  0
  1  2  1  0  0  0  0
  1 11  2  0  0  0  0
  2  3  4  0  0  0  0
  2 22  4  0  0  0  0
  3  4  1  0  0  0  0
  3 19  4  0  0  0  0
  4  5  1  0  0  0  0
  5  6  4  0  0  0  0
  5 10  4  0  0  0  0
  6  7  4  0  0  0  0
  6 11  1  0  0  0  0
  7  8  4  0  0  0  0
  8  9  4  0  0  0  0
  9 10  4  0  0  0  0
 11 12  1  0  0  0  0
 12 13  1  0  0  0  0
 12 17  1  0  0  0  0
 13 14  1  0  0  0  0
 14 15  1  0  0  0  0
 15 16  1  0  0  0  0
 15 18  1  0  0  0  0
 16 17  1  0  0  0  0
 19 20  4  0  0  0  0
 20 21  4  0  0  0  0
 21 22  4  0  0  0  0
M  END
>  <Name_Molregno>
209616

>  <5-HT2A>
7.7

>  <5-HT6>
6.82

>  <DOPAMINE D2>
7.22

>  <DOPAMINE D3>
7

>  <DOPAMINE D4>
7.52

>  <HISTAMINE H4>
5.32

$$$$
209761
  Marvin  02231216192D 0   1.00000     0.00000     0

 26 29  0  0  1  0  0  0  0  0999 V2000
    1.6711    3.5863    0.0000 F   0  0  0  0  0  0  0  0  0
    2.0937    2.8777    0.0000 C   0  0  0  0  0  0  0  0  0
    2.9186    2.8894    0.0000 C   0  0  0  0  0  0  0  0  0
    3.3412    2.1809    0.0000 C   0  0  0  0  0  0  0  0  0
    2.9389    1.4606    0.0000 C   0  0  0  0  0  0  0  0  0
    2.1140    1.4489    0.0000 C   0  0  0  0  0  0  0  0  0
    1.6914    2.1575    0.0000 C   0  0  0  0  0  0  0  0  0
    3.3615    0.7521    0.0000 C   0  0  0  0  0  0  0  0  0
    2.9592    0.0318    0.0000 O   0  0  0  0  0  0  0  0  0
    4.1864    0.7638    0.0000 C   0  0  0  0  0  0  0  0  0
    4.6090    0.0553    0.0000 C   0  0  0  0  0  0  0  0  0
    5.4339    0.0670    0.0000 C   0  0  0  0  0  0  0  0  0
    5.8565   -0.6415    0.0000 N   0  0  0  0  0  0  0  0  0
    6.4171   -1.0814    0.0000 C   0  0  0  0  0  0  0  0  0
    7.3459   -1.0659    0.0000 C   0  0  0  0  0  0  0  0  0
    7.4841   -1.8833    0.0000 C   0  0  0  0  0  0  0  0  0
    6.9679   -1.4546    0.0000 C   0  0  0  0  0  0  0  0  0
    5.9962   -1.4546    0.0000 C   0  0  0  0  0  0  0  0  0
    5.4763   -2.1669    0.0000 C   0  0  0  0  0  0  0  0  0
    6.0966   -1.7900    0.0000 C   0  0  0  0  0  0  0  0  0
    7.8959   -2.5982    0.0000 C   0  0  0  0  0  0  0  0  0
    8.7209   -2.5990    0.0000 C   0  0  0  0  0  0  0  0  0
    9.1327   -3.3139    0.0000 C   0  0  0  0  0  0  0  0  0
    8.7195   -4.0280    0.0000 C   0  0  0  0  0  0  0  0  0
    7.8945   -4.0272    0.0000 C   0  0  0  0  0  0  0  0  0
    7.4827   -3.3123    0.0000 C   0  0  0  0  0  0  0  0  0
  1  2  1  0  0  0  0
  2  3  4  0  0  0  0
  2  7  4  0  0  0  0
  3  4  4  0  0  0  0
  4  5  4  0  0  0  0
  5  6  4  0  0  0  0
  5  8  1  0  0  0  0
  6  7  4  0  0  0  0
  8  9  2  0  0  0  0
  8 10  1  0  0  0  0
 10 11  1  0  0  0  0
 11 12  1  0  0  0  0
 12 13  1  0  0  0  0
 13 14  1  0  0  0  0
 13 18  1  0  0  0  0
 14 15  1  0  0  0  0
 14 20  1  0  0  0  0
 15 16  1  0  0  0  0
 16 17  1  0  0  0  0
 16 21  1  0  0  0  0
 17 18  1  0  0  0  0
 18 19  1  0  0  0  0
 19 20  1  0  0  0  0
 21 22  4  0  0  0  0
 21 26  4  0  0  0  0
 22 23  4  0  0  0  0
 23 24  4  0  0  0  0
 24 25  4  0  0  0  0
 25 26  4  0  0  0  0
M  END
>  <Name_Molregno>
209761

>  <5-HT1A>
6.38

>  <5-HT2A>
6.97

>  <5-HT2C>
5.97

>  <DOPAMINE D2>
6.91

>  <DOPAMINE D4>
6.75

>  <HISTAMINE H1>
6.01

$$$$
214713
  Marvin  02231216192D 0   1.00000     0.00000     0

 20 21  0  0  0  0  0  0  0  0999 V2000
   -0.0647   -0.0092    0.0000 O   0  0  0  0  0  0  0  0  0
    0.6498    0.4033    0.0000 C   0  0  0  0  0  0  0  0  0
    1.3643   -0.0092    0.0000 C   0  0  0  0  0  0  0  0  0
    2.0787    0.4033    0.0000 C   0  0  0  0  0  0  0  0  0
    2.7932   -0.0092    0.0000 N   0  0  0  0  0  0  0  0  0
    3.5077    0.4033    0.0000 C   0  0  0  0  0  0  0  0  0
    4.2222   -0.0092    0.0000 C   0  0  0  0  0  0  0  0  0
    4.9366    0.4033    0.0000 O   0  0  0  0  0  0  0  0  0
    5.6511   -0.0092    0.0000 C   0  0  0  0  0  0  0  0  0
    6.3656    0.4033    0.0000 C   0  0  0  0  0  0  0  0  0
    7.0800   -0.0092    0.0000 C   0  0  0  0  0  0  0  0  0
    7.0800   -0.8342    0.0000 C   0  0  0  0  0  0  0  0  0
    6.3656   -1.2467    0.0000 C   0  0  0  0  0  0  0  0  0
    5.6511   -0.8342    0.0000 C   0  0  0  0  0  0  0  0  0
   -0.7791    0.4033    0.0000 C   0  0  0  0  0  0  0  0  0
   -1.4936   -0.0092    0.0000 C   0  0  0  0  0  0  0  0  0
   -2.2081    0.4033    0.0000 C   0  0  0  0  0  0  0  0  0
   -2.2081    1.2283    0.0000 C   0  0  0  0  0  0  0  0  0
   -1.4936    1.6408    0.0000 C   0  0  0  0  0  0  0  0  0
   -0.7791    1.2283    0.0000 C   0  0  0  0  0  0  0  0  0
  1  2  1  0  0  0  0
  1 15  1  0  0  0  0
  2  3  1  0  0  0  0
  3  4  1  0  0  0  0
  4  5  1  0  0  0  0
  5  6  1  0  0  0  0
  6  7  1  0  0  0  0
  7  8  1  0  0  0  0
  8  9  1  0  0  0  0
  9 10  4  0  0  0  0
  9 14  4  0  0  0  0
 10 11  4  0  0  0  0
 11 12  4  0  0  0  0
 12 13  4  0  0  0  0
 13 14  4  0  0  0  0
 15 16  4  0  0  0  0
 15 20  4  0  0  0  0
 16 17  4  0  0  0  0
 17 18  4  0  0  0  0
 18 19  4  0  0  0  0
 19 20  4  0  0  0  0
M  END
>  <Name_Molregno>
214713

>  <DOPAMINE D2>
6.6

>  <DOPAMINE D3>
6.87

>  <DOPAMINE D4>
8.7

$$$$
214715
  Marvin  02231216192D 0   1.00000     0.00000     0

 21 22  0  0  0  0  0  0  0  0999 V2000
   -7.3800   -1.9681    0.0000 Cl  0  0  0  0  0  0  0  0  0
   -7.3800   -1.1431    0.0000 C   0  0  0  0  0  0  0  0  0
   -8.0944   -0.7306    0.0000 C   0  0  0  0  0  0  0  0  0
   -8.0944    0.0944    0.0000 C   0  0  0  0  0  0  0  0  0
   -7.3800    0.5069    0.0000 C   0  0  0  0  0  0  0  0  0
   -6.6655    0.0944    0.0000 C   0  0  0  0  0  0  0  0  0
   -6.6655   -0.7306    0.0000 C   0  0  0  0  0  0  0  0  0
   -5.9510   -1.1431    0.0000 O   0  0  0  0  0  0  0  0  0
   -5.2366   -0.7306    0.0000 C   0  0  0  0  0  0  0  0  0
   -4.5221   -1.1431    0.0000 C   0  0  0  0  0  0  0  0  0
   -3.8076   -0.7306    0.0000 N   0  0  0  0  0  0  0  0  0
   -3.0931   -1.1431    0.0000 C   0  0  0  0  0  0  0  0  0
   -2.3787   -0.7306    0.0000 C   0  0  0  0  0  0  0  0  0
   -1.6642   -1.1431    0.0000 C   0  0  0  0  0  0  0  0  0
   -0.9497   -0.7306    0.0000 O   0  0  0  0  0  0  0  0  0
   -0.2353   -1.1431    0.0000 C   0  0  0  0  0  0  0  0  0
    0.4792   -0.7306    0.0000 C   0  0  0  0  0  0  0  0  0
    1.1937   -1.1431    0.0000 C   0  0  0  0  0  0  0  0  0
    1.1937   -1.9681    0.0000 C   0  0  0  0  0  0  0  0  0
    0.4792   -2.3806    0.0000 C   0  0  0  0  0  0  0  0  0
   -0.2353   -1.9681    0.0000 C   0  0  0  0  0  0  0  0  0
  1  2  1  0  0  0  0
  2  3  4  0  0  0  0
  2  7  4  0  0  0  0
  3  4  4  0  0  0  0
  4  5  4  0  0  0  0
  5  6  4  0  0  0  0
  6  7  4  0  0  0  0
  7  8  1  0  0  0  0
  8  9  1  0  0  0  0
  9 10  1  0  0  0  0
 10 11  1  0  0  0  0
 11 12  1  0  0  0  0
 12 13  1  0  0  0  0
 13 14  1  0  0  0  0
 14 15  1  0  0  0  0
 15 16  1  0  0  0  0
 16 17  4  0  0  0  0
 16 21  4  0  0  0  0
 17 18  4  0  0  0  0
 18 19  4  0  0  0  0
 19 20  4  0  0  0  0
 20 21  4  0  0  0  0
M  END
>  <Name_Molregno>
214715

>  <DOPAMINE D2>
6.95

>  <DOPAMINE D3>
7.77

>  <DOPAMINE D4>
8.36

$$$$
214747
  Marvin  02231216192D 0   1.00000     0.00000     0

 21 22  0  0  0  0  0  0  0  0999 V2000
    1.2291    2.3311    0.0000 Cl  0  0  0  0  0  0  0  0  0
    1.2291    1.5061    0.0000 C   0  0  0  0  0  0  0  0  0
    1.9435    1.0936    0.0000 C   0  0  0  0  0  0  0  0  0
    1.9435    0.2686    0.0000 C   0  0  0  0  0  0  0  0  0
    2.6580   -0.1439    0.0000 O   0  0  0  0  0  0  0  0  0
    3.3725    0.2686    0.0000 C   0  0  0  0  0  0  0  0  0
    4.0869   -0.1439    0.0000 C   0  0  0  0  0  0  0  0  0
    4.8014    0.2686    0.0000 N   0  0  0  0  0  0  0  0  0
    5.5159   -0.1439    0.0000 C   0  0  0  0  0  0  0  0  0
    6.2304    0.2686    0.0000 C   0  0  0  0  0  0  0  0  0
    6.9448   -0.1439    0.0000 C   0  0  0  0  0  0  0  0  0
    7.6593    0.2686    0.0000 O   0  0  0  0  0  0  0  0  0
    8.3738   -0.1439    0.0000 C   0  0  0  0  0  0  0  0  0
    9.0882    0.2686    0.0000 C   0  0  0  0  0  0  0  0  0
    9.8027   -0.1439    0.0000 C   0  0  0  0  0  0  0  0  0
    9.8027   -0.9689    0.0000 C   0  0  0  0  0  0  0  0  0
    9.0882   -1.3814    0.0000 C   0  0  0  0  0  0  0  0  0
    8.3738   -0.9689    0.0000 C   0  0  0  0  0  0  0  0  0
    1.2291   -0.1439    0.0000 C   0  0  0  0  0  0  0  0  0
    0.5146    0.2686    0.0000 C   0  0  0  0  0  0  0  0  0
    0.5146    1.0936    0.0000 C   0  0  0  0  0  0  0  0  0
  1  2  1  0  0  0  0
  2  3  4  0  0  0  0
  2 21  4  0  0  0  0
  3  4  4  0  0  0  0
  4  5  1  0  0  0  0
  4 19  4  0  0  0  0
  5  6  1  0  0  0  0
  6  7  1  0  0  0  0
  7  8  1  0  0  0  0
  8  9  1  0  0  0  0
  9 10  1  0  0  0  0
 10 11  1  0  0  0  0
 11 12  1  0  0  0  0
 12 13  1  0  0  0  0
 13 14  4  0  0  0  0
 13 18  4  0  0  0  0
 14 15  4  0  0  0  0
 15 16  4  0  0  0  0
 16 17  4  0  0  0  0
 17 18  4  0  0  0  0
 19 20  4  0  0  0  0
 20 21  4  0  0  0  0
M  END
>  <Name_Molregno>
214747

>  <DOPAMINE D2>
7.66

>  <DOPAMINE D4>
9.51

$$$$
214945
  Marvin  02231216192D 0   1.00000     0.00000     0

 22 23  0  0  0  0  0  0  0  0999 V2000
   -0.0457    0.0465    0.0000 O   0  0  0  0  0  0  0  0  0
    0.6687    0.4590    0.0000 C   0  0  0  0  0  0  0  0  0
    1.3832    0.0465    0.0000 C   0  0  0  0  0  0  0  0  0
    2.0977    0.4590    0.0000 C   0  0  0  0  0  0  0  0  0
    2.8121    0.0465    0.0000 N   0  0  0  0  0  0  0  0  0
    3.5266    0.4590    0.0000 C   0  0  0  0  0  0  0  0  0
    4.2411    0.0465    0.0000 C   0  0  0  0  0  0  0  0  0
    4.9556    0.4590    0.0000 O   0  0  0  0  0  0  0  0  0
    5.6700    0.0465    0.0000 C   0  0  0  0  0  0  0  0  0
    6.3845    0.4590    0.0000 C   0  0  0  0  0  0  0  0  0
    7.0990    0.0465    0.0000 C   0  0  0  0  0  0  0  0  0
    7.0990   -0.7785    0.0000 C   0  0  0  0  0  0  0  0  0
    7.8134   -1.1910    0.0000 O   0  0  0  0  0  0  0  0  0
    7.8134   -2.0160    0.0000 C   0  0  0  0  0  0  0  0  0
    6.3845   -1.1910    0.0000 C   0  0  0  0  0  0  0  0  0
    5.6700   -0.7785    0.0000 C   0  0  0  0  0  0  0  0  0
   -0.7602    0.4590    0.0000 C   0  0  0  0  0  0  0  0  0
   -1.4747    0.0465    0.0000 C   0  0  0  0  0  0  0  0  0
   -2.1892    0.4590    0.0000 C   0  0  0  0  0  0  0  0  0
   -2.1892    1.2840    0.0000 C   0  0  0  0  0  0  0  0  0
   -1.4747    1.6965    0.0000 C   0  0  0  0  0  0  0  0  0
   -0.7602    1.2840    0.0000 C   0  0  0  0  0  0  0  0  0
  1  2  1  0  0  0  0
  1 17  1  0  0  0  0
  2  3  1  0  0  0  0
  3  4  1  0  0  0  0
  4  5  1  0  0  0  0
  5  6  1  0  0  0  0
  6  7  1  0  0  0  0
  7  8  1  0  0  0  0
  8  9  1  0  0  0  0
  9 10  4  0  0  0  0
  9 16  4  0  0  0  0
 10 11  4  0  0  0  0
 11 12  4  0  0  0  0
 12 13  1  0  0  0  0
 12 15  4  0  0  0  0
 13 14  1  0  0  0  0
 15 16  4  0  0  0  0
 17 18  4  0  0  0  0
 17 22  4  0  0  0  0
 18 19  4  0  0  0  0
 19 20  4  0  0  0  0
 20 21  4  0  0  0  0
 21 22  4  0  0  0  0
M  END
>  <Name_Molregno>
214945

>  <DOPAMINE D2>
5.71

>  <DOPAMINE D3>
6.43

>  <DOPAMINE D4>
8.27

$$$$
214970
  Marvin  02231216192D 0   1.00000     0.00000     0

 21 22  0  0  0  0  0  0  0  0999 V2000
   -0.0711   -0.0137    0.0000 O   0  0  0  0  0  0  0  0  0
    0.6434    0.3988    0.0000 C   0  0  0  0  0  0  0  0  0
    1.3579   -0.0137    0.0000 C   0  0  0  0  0  0  0  0  0
    2.0723    0.3988    0.0000 C   0  0  0  0  0  0  0  0  0
    2.7868   -0.0137    0.0000 N   0  0  0  0  0  0  0  0  0
    3.5013    0.3988    0.0000 C   0  0  0  0  0  0  0  0  0
    4.2158   -0.0137    0.0000 C   0  0  0  0  0  0  0  0  0
    4.9302    0.3988    0.0000 O   0  0  0  0  0  0  0  0  0
    5.6447   -0.0137    0.0000 C   0  0  0  0  0  0  0  0  0
    6.3592    0.3988    0.0000 C   0  0  0  0  0  0  0  0  0
    7.0736   -0.0137    0.0000 C   0  0  0  0  0  0  0  0  0
    7.0736   -0.8387    0.0000 C   0  0  0  0  0  0  0  0  0
    6.3592   -1.2512    0.0000 C   0  0  0  0  0  0  0  0  0
    5.6447   -0.8387    0.0000 C   0  0  0  0  0  0  0  0  0
    7.7881   -1.2512    0.0000 C   0  0  0  0  0  0  0  0  0
   -0.7855    0.3988    0.0000 C   0  0  0  0  0  0  0  0  0
   -1.5000   -0.0137    0.0000 C   0  0  0  0  0  0  0  0  0
   -2.2145    0.3988    0.0000 C   0  0  0  0  0  0  0  0  0
   -2.2145    1.2238    0.0000 C   0  0  0  0  0  0  0  0  0
   -1.5000    1.6363    0.0000 C   0  0  0  0  0  0  0  0  0
   -0.7855    1.2238    0.0000 C   0  0  0  0  0  0  0  0  0
  1  2  1  0  0  0  0
  1 16  1  0  0  0  0
  2  3  1  0  0  0  0
  3  4  1  0  0  0  0
  4  5  1  0  0  0  0
  5  6  1  0  0  0  0
  6  7  1  0  0  0  0
  7  8  1  0  0  0  0
  8  9  1  0  0  0  0
  9 10  4  0  0  0  0
  9 14  4  0  0  0  0
 10 11  4  0  0  0  0
 11 12  4  0  0  0  0
 12 13  4  0  0  0  0
 12 15  1  0  0  0  0
 13 14  4  0  0  0  0
 16 17  4  0  0  0  0
 16 21  4  0  0  0  0
 17 18  4  0  0  0  0
 18 19  4  0  0  0  0
 19 20  4  0  0  0  0
 20 21  4  0  0  0  0
M  END
>  <Name_Molregno>
214970

>  <DOPAMINE D2>
6.57

>  <DOPAMINE D3>
6.77

>  <DOPAMINE D4>
9.28

$$$$
214972
  Marvin  02231216192D 0   1.00000     0.00000     0

 21 22  0  0  0  0  0  0  0  0999 V2000
   -0.0576   -0.3785    0.0000 O   0  0  0  0  0  0  0  0  0
    0.6569    0.0340    0.0000 C   0  0  0  0  0  0  0  0  0
    1.3713   -0.3785    0.0000 C   0  0  0  0  0  0  0  0  0
    2.0858    0.0340    0.0000 N   0  0  0  0  0  0  0  0  0
    2.8003   -0.3785    0.0000 C   0  0  0  0  0  0  0  0  0
    3.5148    0.0340    0.0000 C   0  0  0  0  0  0  0  0  0
    4.2292   -0.3785    0.0000 C   0  0  0  0  0  0  0  0  0
    4.9437    0.0340    0.0000 O   0  0  0  0  0  0  0  0  0
    5.6582   -0.3785    0.0000 C   0  0  0  0  0  0  0  0  0
    6.3726    0.0340    0.0000 C   0  0  0  0  0  0  0  0  0
    7.0871   -0.3785    0.0000 C   0  0  0  0  0  0  0  0  0
    7.0871   -1.2035    0.0000 C   0  0  0  0  0  0  0  0  0
    6.3726   -1.6160    0.0000 C   0  0  0  0  0  0  0  0  0
    5.6582   -1.2035    0.0000 C   0  0  0  0  0  0  0  0  0
   -0.7721    0.0340    0.0000 C   0  0  0  0  0  0  0  0  0
   -1.4865   -0.3785    0.0000 C   0  0  0  0  0  0  0  0  0
   -2.2010    0.0340    0.0000 C   0  0  0  0  0  0  0  0  0
   -2.2010    0.8590    0.0000 C   0  0  0  0  0  0  0  0  0
   -1.4865    1.2715    0.0000 C   0  0  0  0  0  0  0  0  0
   -0.7721    0.8590    0.0000 C   0  0  0  0  0  0  0  0  0
   -2.9155   -0.3785    0.0000 C   0  0  0  0  0  0  0  0  0
  1  2  1  0  0  0  0
  1 15  1  0  0  0  0
  2  3  1  0  0  0  0
  3  4  1  0  0  0  0
  4  5  1  0  0  0  0
  5  6  1  0  0  0  0
  6  7  1  0  0  0  0
  7  8  1  0  0  0  0
  8  9  1  0  0  0  0
  9 10  4  0  0  0  0
  9 14  4  0  0  0  0
 10 11  4  0  0  0  0
 11 12  4  0  0  0  0
 12 13  4  0  0  0  0
 13 14  4  0  0  0  0
 15 16  4  0  0  0  0
 15 20  4  0  0  0  0
 16 17  4  0  0  0  0
 17 18  4  0  0  0  0
 17 21  1  0  0  0  0
 18 19  4  0  0  0  0
 19 20  4  0  0  0  0
M  END
>  <Name_Molregno>
214972

>  <DOPAMINE D2>
7.21

>  <DOPAMINE D4>
9.34

$$$$
214973
  Marvin  02231216192D 0   1.00000     0.00000     0

 21 22  0  0  0  0  0  0  0  0999 V2000
   -0.1294   -0.1038    0.0000 O   0  0  0  0  0  0  0  0  0
    0.5850    0.3087    0.0000 C   0  0  0  0  0  0  0  0  0
    1.2995   -0.1038    0.0000 C   0  0  0  0  0  0  0  0  0
    2.0140    0.3087    0.0000 N   0  0  0  0  0  0  0  0  0
    2.7285   -0.1038    0.0000 C   0  0  0  0  0  0  0  0  0
    3.4429    0.3087    0.0000 C   0  0  0  0  0  0  0  0  0
    4.1574   -0.1038    0.0000 C   0  0  0  0  0  0  0  0  0
    4.8719    0.3087    0.0000 O   0  0  0  0  0  0  0  0  0
    5.5863   -0.1038    0.0000 C   0  0  0  0  0  0  0  0  0
    6.3008    0.3087    0.0000 C   0  0  0  0  0  0  0  0  0
    7.0153   -0.1038    0.0000 C   0  0  0  0  0  0  0  0  0
    7.0153   -0.9288    0.0000 C   0  0  0  0  0  0  0  0  0
    6.3008   -1.3413    0.0000 C   0  0  0  0  0  0  0  0  0
    5.5863   -0.9288    0.0000 C   0  0  0  0  0  0  0  0  0
   -0.8439    0.3087    0.0000 C   0  0  0  0  0  0  0  0  0
   -1.5584   -0.1038    0.0000 C   0  0  0  0  0  0  0  0  0
   -2.2728    0.3087    0.0000 C   0  0  0  0  0  0  0  0  0
   -2.2728    1.1337    0.0000 C   0  0  0  0  0  0  0  0  0
   -1.5584    1.5462    0.0000 C   0  0  0  0  0  0  0  0  0
   -0.8439    1.1337    0.0000 C   0  0  0  0  0  0  0  0  0
   -0.1294    1.5462    0.0000 C   0  0  0  0  0  0  0  0  0
  1  2  1  0  0  0  0
  1 15  1  0  0  0  0
  2  3  1  0  0  0  0
  3  4  1  0  0  0  0
  4  5  1  0  0  0  0
  5  6  1  0  0  0  0
  6  7  1  0  0  0  0
  7  8  1  0  0  0  0
  8  9  1  0  0  0  0
  9 10  4  0  0  0  0
  9 14  4  0  0  0  0
 10 11  4  0  0  0  0
 11 12  4  0  0  0  0
 12 13  4  0  0  0  0
 13 14  4  0  0  0  0
 15 16  4  0  0  0  0
 15 20  4  0  0  0  0
 16 17  4  0  0  0  0
 17 18  4  0  0  0  0
 18 19  4  0  0  0  0
 19 20  4  0  0  0  0
 20 21  1  0  0  0  0
M  END
>  <Name_Molregno>
214973

>  <DOPAMINE D2>
7.7

>  <DOPAMINE D4>
7.13

$$$$
215039
  Marvin  02231216192D 0   1.00000     0.00000     0

 22 23  0  0  0  0  0  0  0  0999 V2000
   -0.1252    0.0331    0.0000 Cl  0  0  0  0  0  0  0  0  0
    0.5892   -0.3794    0.0000 C   0  0  0  0  0  0  0  0  0
    1.3037    0.0331    0.0000 C   0  0  0  0  0  0  0  0  0
    2.0182   -0.3794    0.0000 C   0  0  0  0  0  0  0  0  0
    2.7327    0.0331    0.0000 O   0  0  0  0  0  0  0  0  0
    3.4471   -0.3794    0.0000 C   0  0  0  0  0  0  0  0  0
    4.1616    0.0331    0.0000 C   0  0  0  0  0  0  0  0  0
    4.8761   -0.3794    0.0000 N   0  0  0  0  0  0  0  0  0
    5.5905    0.0331    0.0000 C   0  0  0  0  0  0  0  0  0
    6.3050   -0.3794    0.0000 C   0  0  0  0  0  0  0  0  0
    7.0195    0.0331    0.0000 C   0  0  0  0  0  0  0  0  0
    7.7339   -0.3794    0.0000 O   0  0  0  0  0  0  0  0  0
    8.4484    0.0331    0.0000 C   0  0  0  0  0  0  0  0  0
    8.4484    0.8581    0.0000 C   0  0  0  0  0  0  0  0  0
    9.1629    1.2706    0.0000 C   0  0  0  0  0  0  0  0  0
    9.8774    0.8581    0.0000 C   0  0  0  0  0  0  0  0  0
    9.8774    0.0331    0.0000 C   0  0  0  0  0  0  0  0  0
    9.1629   -0.3794    0.0000 C   0  0  0  0  0  0  0  0  0
    2.0182   -1.2044    0.0000 C   0  0  0  0  0  0  0  0  0
    1.3037   -1.6169    0.0000 C   0  0  0  0  0  0  0  0  0
    0.5892   -1.2044    0.0000 C   0  0  0  0  0  0  0  0  0
   -0.1252   -1.6169    0.0000 C   0  0  0  0  0  0  0  0  0
  1  2  1  0  0  0  0
  2  3  4  0  0  0  0
  2 21  4  0  0  0  0
  3  4  4  0  0  0  0
  4  5  1  0  0  0  0
  4 19  4  0  0  0  0
  5  6  1  0  0  0  0
  6  7  1  0  0  0  0
  7  8  1  0  0  0  0
  8  9  1  0  0  0  0
  9 10  1  0  0  0  0
 10 11  1  0  0  0  0
 11 12  1  0  0  0  0
 12 13  1  0  0  0  0
 13 14  4  0  0  0  0
 13 18  4  0  0  0  0
 14 15  4  0  0  0  0
 15 16  4  0  0  0  0
 16 17  4  0  0  0  0
 17 18  4  0  0  0  0
 19 20  4  0  0  0  0
 20 21  4  0  0  0  0
 21 22  1  0  0  0  0
M  END
>  <Name_Molregno>
215039

>  <DOPAMINE D2>
6.52

>  <DOPAMINE D3>
8.41

>  <DOPAMINE D4>
9.28

$$$$
215041
  Marvin  02231216192D 0   1.00000     0.00000     0

 22 23  0  0  0  0  0  0  0  0999 V2000
   -0.0642   -0.2445    0.0000 O   0  0  0  0  0  0  0  0  0
    0.6503    0.1680    0.0000 C   0  0  0  0  0  0  0  0  0
    1.3647   -0.2445    0.0000 C   0  0  0  0  0  0  0  0  0
    2.0792    0.1680    0.0000 C   0  0  0  0  0  0  0  0  0
    2.7937   -0.2445    0.0000 N   0  0  0  0  0  0  0  0  0
    3.5081    0.1680    0.0000 C   0  0  0  0  0  0  0  0  0
    4.2226   -0.2445    0.0000 C   0  0  0  0  0  0  0  0  0
    4.9371    0.1680    0.0000 O   0  0  0  0  0  0  0  0  0
    5.6515   -0.2445    0.0000 C   0  0  0  0  0  0  0  0  0
    6.3660    0.1680    0.0000 C   0  0  0  0  0  0  0  0  0
    7.0805   -0.2445    0.0000 C   0  0  0  0  0  0  0  0  0
    7.0805   -1.0695    0.0000 C   0  0  0  0  0  0  0  0  0
    6.3660   -1.4820    0.0000 C   0  0  0  0  0  0  0  0  0
    5.6515   -1.0695    0.0000 C   0  0  0  0  0  0  0  0  0
    7.7950   -1.4820    0.0000 C   0  0  0  0  0  0  0  0  0
   -0.7787    0.1680    0.0000 C   0  0  0  0  0  0  0  0  0
   -1.4932   -0.2445    0.0000 C   0  0  0  0  0  0  0  0  0
   -2.2076    0.1680    0.0000 C   0  0  0  0  0  0  0  0  0
   -2.2076    0.9930    0.0000 C   0  0  0  0  0  0  0  0  0
   -1.4932    1.4055    0.0000 C   0  0  0  0  0  0  0  0  0
   -0.7787    0.9930    0.0000 C   0  0  0  0  0  0  0  0  0
   -2.9221   -0.2445    0.0000 C   0  0  0  0  0  0  0  0  0
  1  2  1  0  0  0  0
  1 16  1  0  0  0  0
  2  3  1  0  0  0  0
  3  4  1  0  0  0  0
  4  5  1  0  0  0  0
  5  6  1  0  0  0  0
  6  7  1  0  0  0  0
  7  8  1  0  0  0  0
  8  9  1  0  0  0  0
  9 10  4  0  0  0  0
  9 14  4  0  0  0  0
 10 11  4  0  0  0  0
 11 12  4  0  0  0  0
 12 13  4  0  0  0  0
 12 15  1  0  0  0  0
 13 14  4  0  0  0  0
 16 17  4  0  0  0  0
 16 21  4  0  0  0  0
 17 18  4  0  0  0  0
 18 19  4  0  0  0  0
 18 22  1  0  0  0  0
 19 20  4  0  0  0  0
 20 21  4  0  0  0  0
M  END
>  <Name_Molregno>
215041

>  <DOPAMINE D2>
6.53

>  <DOPAMINE D3>
6.72

>  <DOPAMINE D4>
8.92

$$$$
215048
  Marvin  02231216192D 0   1.00000     0.00000     0

 22 23  0  0  0  0  0  0  0  0999 V2000
    0.0299    1.0150    0.0000 Cl  0  0  0  0  0  0  0  0  0
    0.7444    0.6025    0.0000 C   0  0  0  0  0  0  0  0  0
    1.4589    1.0150    0.0000 C   0  0  0  0  0  0  0  0  0
    2.1734    0.6025    0.0000 C   0  0  0  0  0  0  0  0  0
    2.1734   -0.2225    0.0000 C   0  0  0  0  0  0  0  0  0
    2.8878   -0.6350    0.0000 O   0  0  0  0  0  0  0  0  0
    3.6023   -0.2225    0.0000 C   0  0  0  0  0  0  0  0  0
    4.3168   -0.6350    0.0000 C   0  0  0  0  0  0  0  0  0
    5.0312   -0.2225    0.0000 N   0  0  0  0  0  0  0  0  0
    5.7457   -0.6350    0.0000 C   0  0  0  0  0  0  0  0  0
    6.4602   -0.2225    0.0000 C   0  0  0  0  0  0  0  0  0
    7.1747   -0.6350    0.0000 C   0  0  0  0  0  0  0  0  0
    7.8891   -0.2225    0.0000 O   0  0  0  0  0  0  0  0  0
    8.6036   -0.6350    0.0000 C   0  0  0  0  0  0  0  0  0
    9.3181   -0.2225    0.0000 C   0  0  0  0  0  0  0  0  0
   10.0325   -0.6350    0.0000 C   0  0  0  0  0  0  0  0  0
   10.0325   -1.4600    0.0000 C   0  0  0  0  0  0  0  0  0
   10.7470   -1.8725    0.0000 F   0  0  0  0  0  0  0  0  0
    9.3181   -1.8725    0.0000 C   0  0  0  0  0  0  0  0  0
    8.6036   -1.4600    0.0000 C   0  0  0  0  0  0  0  0  0
    1.4589   -0.6350    0.0000 C   0  0  0  0  0  0  0  0  0
    0.7444   -0.2225    0.0000 C   0  0  0  0  0  0  0  0  0
  1  2  1  0  0  0  0
  2  3  4  0  0  0  0
  2 22  4  0  0  0  0
  3  4  4  0  0  0  0
  4  5  4  0  0  0  0
  5  6  1  0  0  0  0
  5 21  4  0  0  0  0
  6  7  1  0  0  0  0
  7  8  1  0  0  0  0
  8  9  1  0  0  0  0
  9 10  1  0  0  0  0
 10 11  1  0  0  0  0
 11 12  1  0  0  0  0
 12 13  1  0  0  0  0
 13 14  1  0  0  0  0
 14 15  4  0  0  0  0
 14 20  4  0  0  0  0
 15 16  4  0  0  0  0
 16 17  4  0  0  0  0
 17 18  1  0  0  0  0
 17 19  4  0  0  0  0
 19 20  4  0  0  0  0
 21 22  4  0  0  0  0
M  END
>  <Name_Molregno>
215048

>  <DOPAMINE D2>
6.61

>  <DOPAMINE D3>
7.01

>  <DOPAMINE D4>
9.08

$$$$
215069
  Marvin  02231216192D 0   1.00000     0.00000     0

 22 23  0  0  0  0  0  0  0  0999 V2000
   -0.1322   -0.0974    0.0000 O   0  0  0  0  0  0  0  0  0
    0.5822    0.3151    0.0000 C   0  0  0  0  0  0  0  0  0
    1.2967   -0.0974    0.0000 C   0  0  0  0  0  0  0  0  0
    2.0112    0.3151    0.0000 C   0  0  0  0  0  0  0  0  0
    2.7257   -0.0974    0.0000 N   0  0  0  0  0  0  0  0  0
    3.4401    0.3151    0.0000 C   0  0  0  0  0  0  0  0  0
    4.1546   -0.0974    0.0000 C   0  0  0  0  0  0  0  0  0
    4.8691    0.3151    0.0000 O   0  0  0  0  0  0  0  0  0
    5.5835   -0.0974    0.0000 C   0  0  0  0  0  0  0  0  0
    6.2980    0.3151    0.0000 C   0  0  0  0  0  0  0  0  0
    7.0125   -0.0974    0.0000 C   0  0  0  0  0  0  0  0  0
    7.0125   -0.9224    0.0000 C   0  0  0  0  0  0  0  0  0
    6.2980   -1.3349    0.0000 C   0  0  0  0  0  0  0  0  0
    5.5835   -0.9224    0.0000 C   0  0  0  0  0  0  0  0  0
    7.7270   -1.3349    0.0000 C   0  0  0  0  0  0  0  0  0
   -0.8467    0.3151    0.0000 C   0  0  0  0  0  0  0  0  0
   -1.5612   -0.0974    0.0000 C   0  0  0  0  0  0  0  0  0
   -2.2756    0.3151    0.0000 C   0  0  0  0  0  0  0  0  0
   -2.2756    1.1401    0.0000 C   0  0  0  0  0  0  0  0  0
   -1.5612    1.5526    0.0000 C   0  0  0  0  0  0  0  0  0
   -0.8467    1.1401    0.0000 C   0  0  0  0  0  0  0  0  0
   -0.1322    1.5526    0.0000 C   0  0  0  0  0  0  0  0  0
  1  2  1  0  0  0  0
  1 16  1  0  0  0  0
  2  3  1  0  0  0  0
  3  4  1  0  0  0  0
  4  5  1  0  0  0  0
  5  6  1  0  0  0  0
  6  7  1  0  0  0  0
  7  8  1  0  0  0  0
  8  9  1  0  0  0  0
  9 10  4  0  0  0  0
  9 14  4  0  0  0  0
 10 11  4  0  0  0  0
 11 12  4  0  0  0  0
 12 13  4  0  0  0  0
 12 15  1  0  0  0  0
 13 14  4  0  0  0  0
 16 17  4  0  0  0  0
 16 21  4  0  0  0  0
 17 18  4  0  0  0  0
 18 19  4  0  0  0  0
 19 20  4  0  0  0  0
 20 21  4  0  0  0  0
 21 22  1  0  0  0  0
M  END
>  <Name_Molregno>
215069

>  <DOPAMINE D2>
6.53

>  <DOPAMINE D3>
6.42

>  <DOPAMINE D4>
8.96

$$$$
215072
  Marvin  02231216192D 0   1.00000     0.00000     0

 22 23  0  0  0  0  0  0  0  0999 V2000
    0.0299    1.8725    0.0000 Br  0  0  0  0  0  0  0  0  0
    0.7444    1.4600    0.0000 C   0  0  0  0  0  0  0  0  0
    1.4589    1.8725    0.0000 C   0  0  0  0  0  0  0  0  0
    2.1734    1.4600    0.0000 C   0  0  0  0  0  0  0  0  0
    2.1734    0.6350    0.0000 C   0  0  0  0  0  0  0  0  0
    2.8878    0.2225    0.0000 O   0  0  0  0  0  0  0  0  0
    3.6023    0.6350    0.0000 C   0  0  0  0  0  0  0  0  0
    4.3168    0.2225    0.0000 C   0  0  0  0  0  0  0  0  0
    5.0312    0.6350    0.0000 C   0  0  0  0  0  0  0  0  0
    5.7457    0.2225    0.0000 N   0  0  0  0  0  0  0  0  0
    6.4602    0.6350    0.0000 C   0  0  0  0  0  0  0  0  0
    7.1747    0.2225    0.0000 C   0  0  0  0  0  0  0  0  0
    7.8891    0.6350    0.0000 O   0  0  0  0  0  0  0  0  0
    8.6036    0.2225    0.0000 C   0  0  0  0  0  0  0  0  0
    9.3181    0.6350    0.0000 C   0  0  0  0  0  0  0  0  0
   10.0325    0.2225    0.0000 C   0  0  0  0  0  0  0  0  0
   10.0325   -0.6025    0.0000 C   0  0  0  0  0  0  0  0  0
   10.7470   -1.0150    0.0000 Cl  0  0  0  0  0  0  0  0  0
    9.3181   -1.0150    0.0000 C   0  0  0  0  0  0  0  0  0
    8.6036   -0.6025    0.0000 C   0  0  0  0  0  0  0  0  0
    1.4589    0.2225    0.0000 C   0  0  0  0  0  0  0  0  0
    0.7444    0.6350    0.0000 C   0  0  0  0  0  0  0  0  0
  1  2  1  0  0  0  0
  2  3  4  0  0  0  0
  2 22  4  0  0  0  0
  3  4  4  0  0  0  0
  4  5  4  0  0  0  0
  5  6  1  0  0  0  0
  5 21  4  0  0  0  0
  6  7  1  0  0  0  0
  7  8  1  0  0  0  0
  8  9  1  0  0  0  0
  9 10  1  0  0  0  0
 10 11  1  0  0  0  0
 11 12  1  0  0  0  0
 12 13  1  0  0  0  0
 13 14  1  0  0  0  0
 14 15  4  0  0  0  0
 14 20  4  0  0  0  0
 15 16  4  0  0  0  0
 16 17  4  0  0  0  0
 17 18  1  0  0  0  0
 17 19  4  0  0  0  0
 19 20  4  0  0  0  0
 21 22  4  0  0  0  0
M  END
>  <Name_Molregno>
215072

>  <DOPAMINE D4>
7.42

$$$$
215073
  Marvin  02231216192D 0   1.00000     0.00000     0

 22 23  0  0  0  0  0  0  0  0999 V2000
    0.0299    1.0150    0.0000 Cl  0  0  0  0  0  0  0  0  0
    0.7444    0.6025    0.0000 C   0  0  0  0  0  0  0  0  0
    1.4589    1.0150    0.0000 C   0  0  0  0  0  0  0  0  0
    2.1734    0.6025    0.0000 C   0  0  0  0  0  0  0  0  0
    2.1734   -0.2225    0.0000 C   0  0  0  0  0  0  0  0  0
    2.8878   -0.6350    0.0000 O   0  0  0  0  0  0  0  0  0
    3.6023   -0.2225    0.0000 C   0  0  0  0  0  0  0  0  0
    4.3168   -0.6350    0.0000 C   0  0  0  0  0  0  0  0  0
    5.0312   -0.2225    0.0000 N   0  0  0  0  0  0  0  0  0
    5.7457   -0.6350    0.0000 C   0  0  0  0  0  0  0  0  0
    6.4602   -0.2225    0.0000 C   0  0  0  0  0  0  0  0  0
    7.1747   -0.6350    0.0000 C   0  0  0  0  0  0  0  0  0
    7.8891   -0.2225    0.0000 O   0  0  0  0  0  0  0  0  0
    8.6036   -0.6350    0.0000 C   0  0  0  0  0  0  0  0  0
    9.3181   -0.2225    0.0000 C   0  0  0  0  0  0  0  0  0
   10.0325   -0.6350    0.0000 C   0  0  0  0  0  0  0  0  0
   10.0325   -1.4600    0.0000 C   0  0  0  0  0  0  0  0  0
    9.3181   -1.8725    0.0000 C   0  0  0  0  0  0  0  0  0
    8.6036   -1.4600    0.0000 C   0  0  0  0  0  0  0  0  0
   10.7470   -1.8725    0.0000 C   0  0  0  0  0  0  0  0  0
    1.4589   -0.6350    0.0000 C   0  0  0  0  0  0  0  0  0
    0.7444   -0.2225    0.0000 C   0  0  0  0  0  0  0  0  0
  1  2  1  0  0  0  0
  2  3  4  0  0  0  0
  2 22  4  0  0  0  0
  3  4  4  0  0  0  0
  4  5  4  0  0  0  0
  5  6  1  0  0  0  0
  5 21  4  0  0  0  0
  6  7  1  0  0  0  0
  7  8  1  0  0  0  0
  8  9  1  0  0  0  0
  9 10  1  0  0  0  0
 10 11  1  0  0  0  0
 11 12  1  0  0  0  0
 12 13  1  0  0  0  0
 13 14  1  0  0  0  0
 14 15  4  0  0  0  0
 14 19  4  0  0  0  0
 15 16  4  0  0  0  0
 16 17  4  0  0  0  0
 17 18  4  0  0  0  0
 17 20  1  0  0  0  0
 18 19  4  0  0  0  0
 21 22  4  0  0  0  0
M  END
>  <Name_Molregno>
215073

>  <DOPAMINE D2>
5.88

>  <DOPAMINE D3>
6.75

>  <DOPAMINE D4>
8.25

$$$$
215104
  Marvin  02231216192D 0   1.00000     0.00000     0

 21 22  0  0  0  0  0  0  0  0999 V2000
   -0.0573   -0.0154    0.0000 O   0  0  0  0  0  0  0  0  0
    0.6572    0.3971    0.0000 C   0  0  0  0  0  0  0  0  0
    1.3716   -0.0154    0.0000 C   0  0  0  0  0  0  0  0  0
    2.0861    0.3971    0.0000 C   0  0  0  0  0  0  0  0  0
    2.8006   -0.0154    0.0000 N   0  0  0  0  0  0  0  0  0
    3.5150    0.3971    0.0000 C   0  0  0  0  0  0  0  0  0
    4.2295   -0.0154    0.0000 C   0  0  0  0  0  0  0  0  0
    4.9440    0.3971    0.0000 O   0  0  0  0  0  0  0  0  0
    5.6585   -0.0154    0.0000 C   0  0  0  0  0  0  0  0  0
    6.3729    0.3971    0.0000 C   0  0  0  0  0  0  0  0  0
    7.0874   -0.0154    0.0000 C   0  0  0  0  0  0  0  0  0
    7.0874   -0.8404    0.0000 C   0  0  0  0  0  0  0  0  0
    6.3729   -1.2529    0.0000 C   0  0  0  0  0  0  0  0  0
    5.6585   -0.8404    0.0000 C   0  0  0  0  0  0  0  0  0
   -0.7718    0.3971    0.0000 C   0  0  0  0  0  0  0  0  0
   -1.4863   -0.0154    0.0000 C   0  0  0  0  0  0  0  0  0
   -2.2007    0.3971    0.0000 C   0  0  0  0  0  0  0  0  0
   -2.2007    1.2221    0.0000 C   0  0  0  0  0  0  0  0  0
   -1.4863    1.6346    0.0000 C   0  0  0  0  0  0  0  0  0
   -0.7718    1.2221    0.0000 C   0  0  0  0  0  0  0  0  0
   -2.9152    1.6346    0.0000 C   0  0  0  0  0  0  0  0  0
  1  2  1  0  0  0  0
  1 15  1  0  0  0  0
  2  3  1  0  0  0  0
  3  4  1  0  0  0  0
  4  5  1  0  0  0  0
  5  6  1  0  0  0  0
  6  7  1  0  0  0  0
  7  8  1  0  0  0  0
  8  9  1  0  0  0  0
  9 10  4  0  0  0  0
  9 14  4  0  0  0  0
 10 11  4  0  0  0  0
 11 12  4  0  0  0  0
 12 13  4  0  0  0  0
 13 14  4  0  0  0  0
 15 16  4  0  0  0  0
 15 20  4  0  0  0  0
 16 17  4  0  0  0  0
 17 18  4  0  0  0  0
 18 19  4  0  0  0  0
 18 21  1  0  0  0  0
 19 20  4  0  0  0  0
M  END
>  <Name_Molregno>
215104

>  <DOPAMINE D2>
7.19

>  <DOPAMINE D3>
7.18

>  <DOPAMINE D4>
8.57

$$$$
215172
  Marvin  02231216192D 0   1.00000     0.00000     0

 23 24  0  0  0  0  0  0  0  0999 V2000
   -0.0839    0.0096    0.0000 O   0  0  0  0  0  0  0  0  0
    0.6306    0.4221    0.0000 C   0  0  0  0  0  0  0  0  0
    1.3450    0.0096    0.0000 C   0  0  0  0  0  0  0  0  0
    2.0595    0.4221    0.0000 C   0  0  0  0  0  0  0  0  0
    2.7740    0.0096    0.0000 N   0  0  0  0  0  0  0  0  0
    3.4884    0.4221    0.0000 C   0  0  0  0  0  0  0  0  0
    4.2029    0.0096    0.0000 C   0  0  0  0  0  0  0  0  0
    4.9174    0.4221    0.0000 O   0  0  0  0  0  0  0  0  0
    5.6319    0.0096    0.0000 C   0  0  0  0  0  0  0  0  0
    6.3463    0.4221    0.0000 C   0  0  0  0  0  0  0  0  0
    7.0608    0.0096    0.0000 C   0  0  0  0  0  0  0  0  0
    7.0608   -0.8154    0.0000 C   0  0  0  0  0  0  0  0  0
    7.7753   -1.2279    0.0000 N   0  3  0  0  0  0  0  0  0
    7.7753   -2.0529    0.0000 O   0  5  0  0  0  0  0  0  0
    8.4897   -0.8154    0.0000 O   0  5  0  0  0  0  0  0  0
    6.3463   -1.2279    0.0000 C   0  0  0  0  0  0  0  0  0
    5.6319   -0.8154    0.0000 C   0  0  0  0  0  0  0  0  0
   -0.7984    0.4221    0.0000 C   0  0  0  0  0  0  0  0  0
   -1.5129    0.0096    0.0000 C   0  0  0  0  0  0  0  0  0
   -2.2273    0.4221    0.0000 C   0  0  0  0  0  0  0  0  0
   -2.2273    1.2471    0.0000 C   0  0  0  0  0  0  0  0  0
   -1.5129    1.6596    0.0000 C   0  0  0  0  0  0  0  0  0
   -0.7984    1.2471    0.0000 C   0  0  0  0  0  0  0  0  0
  1  2  1  0  0  0  0
  1 18  1  0  0  0  0
  2  3  1  0  0  0  0
  3  4  1  0  0  0  0
  4  5  1  0  0  0  0
  5  6  1  0  0  0  0
  6  7  1  0  0  0  0
  7  8  1  0  0  0  0
  8  9  1  0  0  0  0
  9 10  4  0  0  0  0
  9 17  4  0  0  0  0
 10 11  4  0  0  0  0
 11 12  4  0  0  0  0
 12 13  1  0  0  0  0
 12 16  4  0  0  0  0
 13 14  1  0  0  0  0
 13 15  1  0  0  0  0
 16 17  4  0  0  0  0
 18 19  4  0  0  0  0
 18 23  4  0  0  0  0
 19 20  4  0  0  0  0
 20 21  4  0  0  0  0
 21 22  4  0  0  0  0
 22 23  4  0  0  0  0
M  CHG  3  13   1  14  -1  15  -1
M  END
>  <Name_Molregno>
215172

>  <DOPAMINE D2>
5.85

>  <DOPAMINE D3>
6.46

>  <DOPAMINE D4>
8.36

$$$$
215267
  Marvin  02231216192D 0   1.00000     0.00000     0

 22 23  0  0  0  0  0  0  0  0999 V2000
    0.0299    1.8725    0.0000 F   0  0  0  0  0  0  0  0  0
    0.7444    1.4600    0.0000 C   0  0  0  0  0  0  0  0  0
    1.4589    1.8725    0.0000 C   0  0  0  0  0  0  0  0  0
    2.1734    1.4600    0.0000 C   0  0  0  0  0  0  0  0  0
    2.1734    0.6350    0.0000 C   0  0  0  0  0  0  0  0  0
    2.8878    0.2225    0.0000 O   0  0  0  0  0  0  0  0  0
    3.6023    0.6350    0.0000 C   0  0  0  0  0  0  0  0  0
    4.3168    0.2225    0.0000 C   0  0  0  0  0  0  0  0  0
    5.0312    0.6350    0.0000 C   0  0  0  0  0  0  0  0  0
    5.7457    0.2225    0.0000 N   0  0  0  0  0  0  0  0  0
    6.4602    0.6350    0.0000 C   0  0  0  0  0  0  0  0  0
    7.1747    0.2225    0.0000 C   0  0  0  0  0  0  0  0  0
    7.8891    0.6350    0.0000 O   0  0  0  0  0  0  0  0  0
    8.6036    0.2225    0.0000 C   0  0  0  0  0  0  0  0  0
    9.3181    0.6350    0.0000 C   0  0  0  0  0  0  0  0  0
   10.0325    0.2225    0.0000 C   0  0  0  0  0  0  0  0  0
   10.0325   -0.6025    0.0000 C   0  0  0  0  0  0  0  0  0
    9.3181   -1.0150    0.0000 C   0  0  0  0  0  0  0  0  0
    8.6036   -0.6025    0.0000 C   0  0  0  0  0  0  0  0  0
   10.7470   -1.0150    0.0000 C   0  0  0  0  0  0  0  0  0
    1.4589    0.2225    0.0000 C   0  0  0  0  0  0  0  0  0
    0.7444    0.6350    0.0000 C   0  0  0  0  0  0  0  0  0
  1  2  1  0  0  0  0
  2  3  4  0  0  0  0
  2 22  4  0  0  0  0
  3  4  4  0  0  0  0
  4  5  4  0  0  0  0
  5  6  1  0  0  0  0
  5 21  4  0  0  0  0
  6  7  1  0  0  0  0
  7  8  1  0  0  0  0
  8  9  1  0  0  0  0
  9 10  1  0  0  0  0
 10 11  1  0  0  0  0
 11 12  1  0  0  0  0
 12 13  1  0  0  0  0
 13 14  1  0  0  0  0
 14 15  4  0  0  0  0
 14 19  4  0  0  0  0
 15 16  4  0  0  0  0
 16 17  4  0  0  0  0
 17 18  4  0  0  0  0
 17 20  1  0  0  0  0
 18 19  4  0  0  0  0
 21 22  4  0  0  0  0
M  END
>  <Name_Molregno>
215267

>  <DOPAMINE D2>
6.41

>  <DOPAMINE D3>
6.63

>  <DOPAMINE D4>
9.02

$$$$
215268
  Marvin  02231216192D 0   1.00000     0.00000     0

 22 23  0  0  0  0  0  0  0  0999 V2000
    0.0299    1.8725    0.0000 Br  0  0  0  0  0  0  0  0  0
    0.7444    1.4600    0.0000 C   0  0  0  0  0  0  0  0  0
    1.4589    1.8725    0.0000 C   0  0  0  0  0  0  0  0  0
    2.1734    1.4600    0.0000 C   0  0  0  0  0  0  0  0  0
    2.1734    0.6350    0.0000 C   0  0  0  0  0  0  0  0  0
    2.8878    0.2225    0.0000 O   0  0  0  0  0  0  0  0  0
    3.6023    0.6350    0.0000 C   0  0  0  0  0  0  0  0  0
    4.3168    0.2225    0.0000 C   0  0  0  0  0  0  0  0  0
    5.0312    0.6350    0.0000 C   0  0  0  0  0  0  0  0  0
    5.7457    0.2225    0.0000 N   0  0  0  0  0  0  0  0  0
    6.4602    0.6350    0.0000 C   0  0  0  0  0  0  0  0  0
    7.1747    0.2225    0.0000 C   0  0  0  0  0  0  0  0  0
    7.8891    0.6350    0.0000 O   0  0  0  0  0  0  0  0  0
    8.6036    0.2225    0.0000 C   0  0  0  0  0  0  0  0  0
    9.3181    0.6350    0.0000 C   0  0  0  0  0  0  0  0  0
   10.0325    0.2225    0.0000 C   0  0  0  0  0  0  0  0  0
   10.0325   -0.6025    0.0000 C   0  0  0  0  0  0  0  0  0
    9.3181   -1.0150    0.0000 C   0  0  0  0  0  0  0  0  0
    8.6036   -0.6025    0.0000 C   0  0  0  0  0  0  0  0  0
   10.7470   -1.0150    0.0000 C   0  0  0  0  0  0  0  0  0
    1.4589    0.2225    0.0000 C   0  0  0  0  0  0  0  0  0
    0.7444    0.6350    0.0000 C   0  0  0  0  0  0  0  0  0
  1  2  1  0  0  0  0
  2  3  4  0  0  0  0
  2 22  4  0  0  0  0
  3  4  4  0  0  0  0
  4  5  4  0  0  0  0
  5  6  1  0  0  0  0
  5 21  4  0  0  0  0
  6  7  1  0  0  0  0
  7  8  1  0  0  0  0
  8  9  1  0  0  0  0
  9 10  1  0  0  0  0
 10 11  1  0  0  0  0
 11 12  1  0  0  0  0
 12 13  1  0  0  0  0
 13 14  1  0  0  0  0
 14 15  4  0  0  0  0
 14 19  4  0  0  0  0
 15 16  4  0  0  0  0
 16 17  4  0  0  0  0
 17 18  4  0  0  0  0
 17 20  1  0  0  0  0
 18 19  4  0  0  0  0
 21 22  4  0  0  0  0
M  END
>  <Name_Molregno>
215268

>  <DOPAMINE D2>
5.24

>  <DOPAMINE D3>
5.77

>  <DOPAMINE D4>
7.57

$$$$
215311
  Marvin  02231216192D 0   1.00000     0.00000     0

 22 23  0  0  0  0  0  0  0  0999 V2000
   -0.0634   -0.3872    0.0000 O   0  0  0  0  0  0  0  0  0
    0.6511    0.0253    0.0000 C   0  0  0  0  0  0  0  0  0
    1.3655   -0.3872    0.0000 C   0  0  0  0  0  0  0  0  0
    2.0800    0.0253    0.0000 C   0  0  0  0  0  0  0  0  0
    2.7945   -0.3872    0.0000 N   0  0  0  0  0  0  0  0  0
    3.5089    0.0253    0.0000 C   0  0  0  0  0  0  0  0  0
    4.2234   -0.3872    0.0000 C   0  0  0  0  0  0  0  0  0
    4.9379    0.0253    0.0000 O   0  0  0  0  0  0  0  0  0
    5.6524   -0.3872    0.0000 C   0  0  0  0  0  0  0  0  0
    6.3668    0.0253    0.0000 C   0  0  0  0  0  0  0  0  0
    7.0813   -0.3872    0.0000 C   0  0  0  0  0  0  0  0  0
    7.0813   -1.2122    0.0000 C   0  0  0  0  0  0  0  0  0
    6.3668   -1.6247    0.0000 C   0  0  0  0  0  0  0  0  0
    5.6524   -1.2122    0.0000 C   0  0  0  0  0  0  0  0  0
    7.7958   -1.6247    0.0000 C   0  0  0  0  0  0  0  0  0
   -0.7779    0.0253    0.0000 C   0  0  0  0  0  0  0  0  0
   -1.4924   -0.3872    0.0000 C   0  0  0  0  0  0  0  0  0
   -2.2068    0.0253    0.0000 C   0  0  0  0  0  0  0  0  0
   -2.2068    0.8503    0.0000 C   0  0  0  0  0  0  0  0  0
   -1.4924    1.2628    0.0000 C   0  0  0  0  0  0  0  0  0
   -0.7779    0.8503    0.0000 C   0  0  0  0  0  0  0  0  0
   -2.9213    1.2628    0.0000 C   0  0  0  0  0  0  0  0  0
  1  2  1  0  0  0  0
  1 16  1  0  0  0  0
  2  3  1  0  0  0  0
  3  4  1  0  0  0  0
  4  5  1  0  0  0  0
  5  6  1  0  0  0  0
  6  7  1  0  0  0  0
  7  8  1  0  0  0  0
  8  9  1  0  0  0  0
  9 10  4  0  0  0  0
  9 14  4  0  0  0  0
 10 11  4  0  0  0  0
 11 12  4  0  0  0  0
 12 13  4  0  0  0  0
 12 15  1  0  0  0  0
 13 14  4  0  0  0  0
 16 17  4  0  0  0  0
 16 21  4  0  0  0  0
 17 18  4  0  0  0  0
 18 19  4  0  0  0  0
 19 20  4  0  0  0  0
 19 22  1  0  0  0  0
 20 21  4  0  0  0  0
M  END
>  <Name_Molregno>
215311

>  <DOPAMINE D2>
6.56

>  <DOPAMINE D3>
6.63

>  <DOPAMINE D4>
7.96

$$$$
215743
  Marvin  02231216192D 0   1.00000     0.00000     0

 22 23  0  0  0  0  0  0  0  0999 V2000
   -0.0509   -0.5073    0.0000 O   0  0  0  0  0  0  0  0  0
    0.6635   -0.0948    0.0000 C   0  0  0  0  0  0  0  0  0
    1.3780   -0.5073    0.0000 C   0  0  0  0  0  0  0  0  0
    2.0925   -0.0948    0.0000 N   0  0  0  0  0  0  0  0  0
    2.8069   -0.5073    0.0000 C   0  0  0  0  0  0  0  0  0
    3.5214   -0.0948    0.0000 C   0  0  0  0  0  0  0  0  0
    4.2359   -0.5073    0.0000 C   0  0  0  0  0  0  0  0  0
    4.9504   -0.0948    0.0000 O   0  0  0  0  0  0  0  0  0
    5.6648   -0.5073    0.0000 C   0  0  0  0  0  0  0  0  0
    6.3793   -0.0948    0.0000 C   0  0  0  0  0  0  0  0  0
    7.0938   -0.5073    0.0000 C   0  0  0  0  0  0  0  0  0
    7.0938   -1.3323    0.0000 C   0  0  0  0  0  0  0  0  0
    6.3793   -1.7448    0.0000 C   0  0  0  0  0  0  0  0  0
    5.6648   -1.3323    0.0000 C   0  0  0  0  0  0  0  0  0
   -0.7654   -0.0948    0.0000 C   0  0  0  0  0  0  0  0  0
   -1.4799   -0.5073    0.0000 C   0  0  0  0  0  0  0  0  0
   -2.1944   -0.0948    0.0000 C   0  0  0  0  0  0  0  0  0
   -2.9088   -0.5073    0.0000 C   0  0  0  0  0  0  0  0  0
   -2.1944    0.7302    0.0000 C   0  0  0  0  0  0  0  0  0
   -1.4799    1.1427    0.0000 C   0  0  0  0  0  0  0  0  0
   -0.7654    0.7302    0.0000 C   0  0  0  0  0  0  0  0  0
   -2.9088    1.1427    0.0000 C   0  0  0  0  0  0  0  0  0
  1  2  1  0  0  0  0
  1 15  1  0  0  0  0
  2  3  1  0  0  0  0
  3  4  1  0  0  0  0
  4  5  1  0  0  0  0
  5  6  1  0  0  0  0
  6  7  1  0  0  0  0
  7  8  1  0  0  0  0
  8  9  1  0  0  0  0
  9 10  4  0  0  0  0
  9 14  4  0  0  0  0
 10 11  4  0  0  0  0
 11 12  4  0  0  0  0
 12 13  4  0  0  0  0
 13 14  4  0  0  0  0
 15 16  4  0  0  0  0
 15 21  4  0  0  0  0
 16 17  4  0  0  0  0
 17 18  1  0  0  0  0
 17 19  4  0  0  0  0
 19 20  4  0  0  0  0
 19 22  1  0  0  0  0
 20 21  4  0  0  0  0
M  END
>  <Name_Molregno>
215743

>  <DOPAMINE D2>
6.84

>  <DOPAMINE D3>
7.14

>  <DOPAMINE D4>
9.46

$$$$
215788
  Marvin  02231216192D 0   1.00000     0.00000     0

 21 22  0  0  0  0  0  0  0  0999 V2000
    0.0302    0.9893    0.0000 Cl  0  0  0  0  0  0  0  0  0
    0.7447    0.5768    0.0000 C   0  0  0  0  0  0  0  0  0
    1.4591    0.9893    0.0000 C   0  0  0  0  0  0  0  0  0
    2.1736    0.5768    0.0000 C   0  0  0  0  0  0  0  0  0
    2.1736   -0.2482    0.0000 C   0  0  0  0  0  0  0  0  0
    2.8881   -0.6607    0.0000 O   0  0  0  0  0  0  0  0  0
    3.6026   -0.2482    0.0000 C   0  0  0  0  0  0  0  0  0
    4.3170   -0.6607    0.0000 C   0  0  0  0  0  0  0  0  0
    5.0315   -0.2482    0.0000 N   0  0  0  0  0  0  0  0  0
    5.7460   -0.6607    0.0000 C   0  0  0  0  0  0  0  0  0
    6.4604   -0.2482    0.0000 C   0  0  0  0  0  0  0  0  0
    7.1749   -0.6607    0.0000 C   0  0  0  0  0  0  0  0  0
    7.8894   -0.2482    0.0000 O   0  0  0  0  0  0  0  0  0
    8.6039   -0.6607    0.0000 C   0  0  0  0  0  0  0  0  0
    9.3183   -0.2482    0.0000 C   0  0  0  0  0  0  0  0  0
   10.0328   -0.6607    0.0000 C   0  0  0  0  0  0  0  0  0
   10.0328   -1.4857    0.0000 C   0  0  0  0  0  0  0  0  0
    9.3183   -1.8982    0.0000 C   0  0  0  0  0  0  0  0  0
    8.6039   -1.4857    0.0000 C   0  0  0  0  0  0  0  0  0
    1.4591   -0.6607    0.0000 C   0  0  0  0  0  0  0  0  0
    0.7447   -0.2482    0.0000 C   0  0  0  0  0  0  0  0  0
  1  2  1  0  0  0  0
  2  3  4  0  0  0  0
  2 21  4  0  0  0  0
  3  4  4  0  0  0  0
  4  5  4  0  0  0  0
  5  6  1  0  0  0  0
  5 20  4  0  0  0  0
  6  7  1  0  0  0  0
  7  8  1  0  0  0  0
  8  9  1  0  0  0  0
  9 10  1  0  0  0  0
 10 11  1  0  0  0  0
 11 12  1  0  0  0  0
 12 13  1  0  0  0  0
 13 14  1  0  0  0  0
 14 15  4  0  0  0  0
 14 19  4  0  0  0  0
 15 16  4  0  0  0  0
 16 17  4  0  0  0  0
 17 18  4  0  0  0  0
 18 19  4  0  0  0  0
 20 21  4  0  0  0  0
M  END
>  <Name_Molregno>
215788

>  <DOPAMINE D2>
6.64

>  <DOPAMINE D3>
7.51

>  <DOPAMINE D4>
9.28

$$$$
217067
  Marvin  02231216192D 0   1.00000     0.00000     0

 29 31  0  0  1  0  0  0  0  0999 V2000
   -1.2017    1.0936    0.0000 S   0  0  0  0  0  0  0  0  0
   -1.2017    0.2686    0.0000 O   0  0  0  0  0  0  0  0  0
   -1.2017    1.9186    0.0000 O   0  0  0  0  0  0  0  0  0
   -2.0267    1.0936    0.0000 C   0  0  0  0  0  0  0  0  0
   -2.4392    0.3791    0.0000 C   0  0  0  0  0  0  0  0  0
   -2.0267   -0.3354    0.0000 C   0  0  0  0  0  0  0  0  0
   -2.4392   -1.0498    0.0000 C   0  0  0  0  0  0  0  0  0
   -2.0267   -1.7643    0.0000 C   0  0  0  0  0  0  0  0  0
   -2.4392   -2.4788    0.0000 C   0  0  0  0  0  0  0  0  0
   -3.2642   -2.4788    0.0000 C   0  0  0  0  0  0  0  0  0
   -3.6767   -3.1932    0.0000 N   0  0  0  0  0  0  0  0  0
   -4.5017   -3.1932    0.0000 C   0  0  0  0  0  0  0  0  0
   -4.9142   -3.9077    0.0000 C   0  0  0  0  0  0  0  0  0
   -5.7392   -3.9077    0.0000 C   0  0  0  0  0  0  0  0  0
   -3.2642   -3.9077    0.0000 C   0  0  0  0  0  0  0  0  0
   -2.4392   -3.9077    0.0000 C   0  0  0  0  0  0  0  0  0
   -2.0267   -4.6222    0.0000 C   0  0  0  0  0  0  0  0  0
   -3.6767   -1.7643    0.0000 C   0  0  0  0  0  0  0  0  0
   -3.2642   -1.0498    0.0000 C   0  0  0  0  0  0  0  0  0
   -3.6767   -0.3354    0.0000 C   0  0  0  0  0  0  0  0  0
   -3.2642    0.3791    0.0000 C   0  0  0  0  0  0  0  0  0
   -0.3767    1.0936    0.0000 C   0  0  0  0  0  0  0  0  0
    0.0358    1.8081    0.0000 C   0  0  0  0  0  0  0  0  0
    0.8608    1.8081    0.0000 C   0  0  0  0  0  0  0  0  0
    1.2733    1.0936    0.0000 C   0  0  0  0  0  0  0  0  0
    2.0983    1.0936    0.0000 O   0  0  0  0  0  0  0  0  0
    2.5108    1.8081    0.0000 C   0  0  0  0  0  0  0  0  0
    0.8608    0.3791    0.0000 C   0  0  0  0  0  0  0  0  0
    0.0358    0.3791    0.0000 C   0  0  0  0  0  0  0  0  0
  1  2  2  0  0  0  0
  1  3  2  0  0  0  0
  1  4  1  0  0  0  0
  1 22  1  0  0  0  0
  4  5  1  0  0  0  0
  5  6  4  0  0  0  0
  5 21  4  0  0  0  0
  6  7  4  0  0  0  0
  7  8  1  0  0  0  0
  7 19  4  0  0  0  0
  8  9  1  0  0  0  0
  9 10  1  0  0  0  0
 10 11  1  0  0  0  0
 10 18  1  0  0  0  0
 11 12  1  0  0  0  0
 11 15  1  0  0  0  0
 12 13  1  0  0  0  0
 13 14  1  0  0  0  0
 15 16  1  0  0  0  0
 16 17  1  0  0  0  0
 18 19  1  0  0  0  0
 19 20  4  0  0  0  0
 20 21  4  0  0  0  0
 22 23  4  0  0  0  0
 22 29  4  0  0  0  0
 23 24  4  0  0  0  0
 24 25  4  0  0  0  0
 25 26  1  0  0  0  0
 25 28  4  0  0  0  0
 26 27  1  0  0  0  0
 28 29  4  0  0  0  0
M  END
>  <Name_Molregno>
217067

>  <5-HT1A>
6.8

>  <5-HT1B>
6

>  <5-HT1D>
6

>  <5-HT2A>
6

>  <5-HT2C>
6

>  <DOPAMINE D1>
6

>  <DOPAMINE D2>
7.03

>  <DOPAMINE D3>
8.88

>  <DOPAMINE D4>
5

>  <DOPAMINE D5>
6

$$$$
232974
  Marvin  02231216192D 0   1.00000     0.00000     0

 24 26  0  0  0  0  0  0  0  0999 V2000
    0.1578    2.6676    0.0000 F   0  0  0  0  0  0  0  0  0
    0.8723    2.2551    0.0000 C   0  0  0  0  0  0  0  0  0
    1.5868    2.6676    0.0000 C   0  0  0  0  0  0  0  0  0
    2.3013    2.2551    0.0000 C   0  0  0  0  0  0  0  0  0
    2.3013    1.4301    0.0000 C   0  0  0  0  0  0  0  0  0
    1.5868    1.0176    0.0000 C   0  0  0  0  0  0  0  0  0
    0.8723    1.4301    0.0000 C   0  0  0  0  0  0  0  0  0
    3.0157    1.0176    0.0000 C   0  0  0  0  0  0  0  0  0
    3.0157    0.1926    0.0000 O   0  0  0  0  0  0  0  0  0
    3.7302    1.4301    0.0000 C   0  0  0  0  0  0  0  0  0
    4.4447    1.0176    0.0000 C   0  0  0  0  0  0  0  0  0
    5.1591    1.4301    0.0000 C   0  0  0  0  0  0  0  0  0
    5.8736    1.0176    0.0000 N   0  0  0  0  0  0  0  0  0
    6.5881    1.4301    0.0000 C   0  0  0  0  0  0  0  0  0
    7.3026    1.0176    0.0000 C   0  0  0  0  0  0  0  0  0
    7.3026    0.1926    0.0000 N   0  0  0  0  0  0  0  0  0
    6.5881   -0.2199    0.0000 C   0  0  0  0  0  0  0  0  0
    5.8736    0.1926    0.0000 C   0  0  0  0  0  0  0  0  0
    8.0170   -0.2199    0.0000 C   0  0  0  0  0  0  0  0  0
    8.7315    0.1926    0.0000 N   0  0  0  0  0  0  0  0  0
    9.4460   -0.2199    0.0000 C   0  0  0  0  0  0  0  0  0
    9.4460   -1.0449    0.0000 C   0  0  0  0  0  0  0  0  0
    8.7315   -1.4574    0.0000 C   0  0  0  0  0  0  0  0  0
    8.0170   -1.0449    0.0000 N   0  0  0  0  0  0  0  0  0
  1  2  1  0  0  0  0
  2  3  4  0  0  0  0
  2  7  4  0  0  0  0
  3  4  4  0  0  0  0
  4  5  4  0  0  0  0
  5  6  4  0  0  0  0
  5  8  1  0  0  0  0
  6  7  4  0  0  0  0
  8  9  2  0  0  0  0
  8 10  1  0  0  0  0
 10 11  1  0  0  0  0
 11 12  1  0  0  0  0
 12 13  1  0  0  0  0
 13 14  1  0  0  0  0
 13 18  1  0  0  0  0
 14 15  1  0  0  0  0
 15 16  1  0  0  0  0
 16 17  1  0  0  0  0
 16 19  1  0  0  0  0
 17 18  1  0  0  0  0
 19 20  4  0  0  0  0
 19 24  4  0  0  0  0
 20 21  4  0  0  0  0
 21 22  4  0  0  0  0
 22 23  4  0  0  0  0
 23 24  4  0  0  0  0
M  END
>  <Name_Molregno>
232974

>  <5-HT1A>
7.52

>  <5-HT2A>
7.66

>  <5-HT2C>
5.38

>  <DOPAMINE D2>
7.01

>  <DOPAMINE D3>
6.61

>  <DOPAMINE D4>
8.19

>  <HISTAMINE H1>
6.04

$$$$
234098
  Marvin  02231216192D 0   1.00000     0.00000     0

 25 28  0  0  0  0  0  0  0  0999 V2000
   -4.0857   -3.1191    0.0000 Cl  0  0  0  0  0  0  0  0  0
   -4.9107   -3.1191    0.0000 C   0  0  0  0  0  0  0  0  0
   -5.3232   -3.8336    0.0000 C   0  0  0  0  0  0  0  0  0
   -6.1482   -3.8336    0.0000 C   0  0  0  0  0  0  0  0  0
   -6.5607   -3.1191    0.0000 C   0  0  0  0  0  0  0  0  0
   -6.1482   -2.4046    0.0000 C   0  0  0  0  0  0  0  0  0
   -5.3232   -2.4046    0.0000 C   0  0  0  0  0  0  0  0  0
   -4.9107   -1.6902    0.0000 N   0  0  0  0  0  0  0  0  0
   -5.3232   -0.9757    0.0000 C   0  0  0  0  0  0  0  0  0
   -4.9107   -0.2612    0.0000 C   0  0  0  0  0  0  0  0  0
   -4.0857   -0.2612    0.0000 N   0  0  0  0  0  0  0  0  0
   -3.6732   -0.9757    0.0000 C   0  0  0  0  0  0  0  0  0
   -4.0857   -1.6902    0.0000 C   0  0  0  0  0  0  0  0  0
   -3.6732    0.4532    0.0000 C   0  0  0  0  0  0  0  0  0
   -2.8482    0.4532    0.0000 C   0  0  0  0  0  0  0  0  0
   -2.3633    1.1207    0.0000 N   0  0  0  0  0  0  0  0  0
   -1.5786    0.8657    0.0000 C   0  0  0  0  0  0  0  0  0
   -0.8642    1.2782    0.0000 C   0  0  0  0  0  0  0  0  0
   -0.1497    0.8657    0.0000 C   0  0  0  0  0  0  0  0  0
   -0.1497    0.0407    0.0000 C   0  0  0  0  0  0  0  0  0
   -0.8642   -0.3718    0.0000 C   0  0  0  0  0  0  0  0  0
   -1.5786    0.0407    0.0000 C   0  0  0  0  0  0  0  0  0
   -2.3633   -0.2142    0.0000 C   0  0  0  0  0  0  0  0  0
    0.5648    1.2782    0.0000 C   0  0  0  0  0  0  0  0  0
    1.2792    1.6907    0.0000 N   0  0  0  0  0  0  0  0  0
  1  2  1  0  0  0  0
  2  3  4  0  0  0  0
  2  7  4  0  0  0  0
  3  4  4  0  0  0  0
  4  5  4  0  0  0  0
  5  6  4  0  0  0  0
  6  7  4  0  0  0  0
  7  8  1  0  0  0  0
  8  9  1  0  0  0  0
  8 13  1  0  0  0  0
  9 10  1  0  0  0  0
 10 11  1  0  0  0  0
 11 12  1  0  0  0  0
 11 14  1  0  0  0  0
 12 13  1  0  0  0  0
 14 15  1  0  0  0  0
 15 16  4  0  0  0  0
 15 23  4  0  0  0  0
 16 17  4  0  0  0  0
 17 18  4  0  0  0  0
 17 22  4  0  0  0  0
 18 19  4  0  0  0  0
 19 20  4  0  0  0  0
 19 24  1  0  0  0  0
 20 21  4  0  0  0  0
 21 22  4  0  0  0  0
 22 23  4  0  0  0  0
 24 25  3  0  0  0  0
M  STY  1   1 DAT
M  SAL   1  1  16
M  SDT   1 MRV_IMPLICIT_H                                        
M  SDD   1     0.0000    0.0000    DR    ALL  0       0  
M  SED   1 IMPL_H1
M  END
>  <Name_Molregno>
234098

>  <DOPAMINE D2>
6.48

>  <DOPAMINE D3>
6.04

>  <DOPAMINE D4>
8.47

$$$$
234131
  Marvin  02231216192D 0   1.00000     0.00000     0

 24 27  0  0  0  0  0  0  0  0999 V2000
   -2.5283   -0.9188    0.0000 N   0  0  0  0  0  0  0  0  0
   -3.0132   -0.2514    0.0000 C   0  0  0  0  0  0  0  0  0
   -2.5283    0.4160    0.0000 C   0  0  0  0  0  0  0  0  0
   -1.7436    0.1611    0.0000 C   0  0  0  0  0  0  0  0  0
   -1.0292    0.5736    0.0000 C   0  0  0  0  0  0  0  0  0
   -0.3147    0.1611    0.0000 C   0  0  0  0  0  0  0  0  0
   -0.3147   -0.6639    0.0000 C   0  0  0  0  0  0  0  0  0
   -1.0292   -1.0764    0.0000 C   0  0  0  0  0  0  0  0  0
   -1.7436   -0.6639    0.0000 C   0  0  0  0  0  0  0  0  0
    0.3998    0.5736    0.0000 C   0  0  0  0  0  0  0  0  0
    1.1142    0.9861    0.0000 N   0  0  0  0  0  0  0  0  0
   -2.7832    1.2007    0.0000 C   0  0  0  0  0  0  0  0  0
   -2.2312    1.8138    0.0000 N   0  0  0  0  0  0  0  0  0
   -2.4861    2.5984    0.0000 C   0  0  0  0  0  0  0  0  0
   -1.9341    3.2115    0.0000 C   0  0  0  0  0  0  0  0  0
   -1.1271    3.0400    0.0000 N   0  0  0  0  0  0  0  0  0
   -0.8722    2.2553    0.0000 C   0  0  0  0  0  0  0  0  0
   -1.4242    1.6422    0.0000 C   0  0  0  0  0  0  0  0  0
   -0.5751    3.6530    0.0000 C   0  0  0  0  0  0  0  0  0
   -0.8300    4.4377    0.0000 C   0  0  0  0  0  0  0  0  0
   -0.2780    5.0508    0.0000 C   0  0  0  0  0  0  0  0  0
    0.5290    4.8792    0.0000 C   0  0  0  0  0  0  0  0  0
    0.7839    4.0946    0.0000 C   0  0  0  0  0  0  0  0  0
    0.2319    3.4815    0.0000 C   0  0  0  0  0  0  0  0  0
  1  2  4  0  0  0  0
  1  9  4  0  0  0  0
  2  3  4  0  0  0  0
  3  4  4  0  0  0  0
  3 12  1  0  0  0  0
  4  5  4  0  0  0  0
  4  9  4  0  0  0  0
  5  6  4  0  0  0  0
  6  7  4  0  0  0  0
  6 10  1  0  0  0  0
  7  8  4  0  0  0  0
  8  9  4  0  0  0  0
 10 11  3  0  0  0  0
 12 13  1  0  0  0  0
 13 14  1  0  0  0  0
 13 18  1  0  0  0  0
 14 15  1  0  0  0  0
 15 16  1  0  0  0  0
 16 17  1  0  0  0  0
 16 19  1  0  0  0  0
 17 18  1  0  0  0  0
 19 20  4  0  0  0  0
 19 24  4  0  0  0  0
 20 21  4  0  0  0  0
 21 22  4  0  0  0  0
 22 23  4  0  0  0  0
 23 24  4  0  0  0  0
M  STY  1   1 DAT
M  SAL   1  1   1
M  SDT   1 MRV_IMPLICIT_H                                        
M  SDD   1     0.0000    0.0000    DR    ALL  0       0  
M  SED   1 IMPL_H1
M  END
>  <Name_Molregno>
234131

>  <DOPAMINE D2>
4.96

>  <DOPAMINE D3>
5.36

>  <DOPAMINE D4>
7.3

$$$$
234135
  Marvin  02231216192D 0   1.00000     0.00000     0

 25 28  0  0  0  0  0  0  0  0999 V2000
    1.4305   -2.7045    0.0000 Cl  0  0  0  0  0  0  0  0  0
    1.8430   -1.9900    0.0000 C   0  0  0  0  0  0  0  0  0
    1.4305   -1.2756    0.0000 C   0  0  0  0  0  0  0  0  0
    1.8430   -0.5611    0.0000 C   0  0  0  0  0  0  0  0  0
    2.6680   -0.5611    0.0000 C   0  0  0  0  0  0  0  0  0
    3.0805    0.1534    0.0000 N   0  0  0  0  0  0  0  0  0
    2.6680    0.8678    0.0000 C   0  0  0  0  0  0  0  0  0
    3.0805    1.5823    0.0000 C   0  0  0  0  0  0  0  0  0
    3.9055    1.5823    0.0000 N   0  0  0  0  0  0  0  0  0
    4.3180    0.8678    0.0000 C   0  0  0  0  0  0  0  0  0
    3.9055    0.1534    0.0000 C   0  0  0  0  0  0  0  0  0
    4.3180    2.2968    0.0000 C   0  0  0  0  0  0  0  0  0
    5.1430    2.2968    0.0000 C   0  0  0  0  0  0  0  0  0
    5.6280    1.6293    0.0000 N   0  0  0  0  0  0  0  0  0
    6.4126    1.8843    0.0000 C   0  0  0  0  0  0  0  0  0
    6.4126    2.7093    0.0000 C   0  0  0  0  0  0  0  0  0
    7.1270    3.1218    0.0000 C   0  0  0  0  0  0  0  0  0
    7.8415    2.7093    0.0000 C   0  0  0  0  0  0  0  0  0
    7.8415    1.8843    0.0000 C   0  0  0  0  0  0  0  0  0
    7.1270    1.4718    0.0000 C   0  0  0  0  0  0  0  0  0
    8.5560    3.1218    0.0000 C   0  0  0  0  0  0  0  0  0
    9.2705    3.5343    0.0000 N   0  0  0  0  0  0  0  0  0
    5.6280    2.9642    0.0000 C   0  0  0  0  0  0  0  0  0
    3.0805   -1.2756    0.0000 C   0  0  0  0  0  0  0  0  0
    2.6680   -1.9900    0.0000 C   0  0  0  0  0  0  0  0  0
  1  2  1  0  0  0  0
  2  3  4  0  0  0  0
  2 25  4  0  0  0  0
  3  4  4  0  0  0  0
  4  5  4  0  0  0  0
  5  6  1  0  0  0  0
  5 24  4  0  0  0  0
  6  7  1  0  0  0  0
  6 11  1  0  0  0  0
  7  8  1  0  0  0  0
  8  9  1  0  0  0  0
  9 10  1  0  0  0  0
  9 12  1  0  0  0  0
 10 11  1  0  0  0  0
 12 13  1  0  0  0  0
 13 14  4  0  0  0  0
 13 23  4  0  0  0  0
 14 15  4  0  0  0  0
 15 16  4  0  0  0  0
 15 20  4  0  0  0  0
 16 17  4  0  0  0  0
 16 23  4  0  0  0  0
 17 18  4  0  0  0  0
 18 19  4  0  0  0  0
 18 21  1  0  0  0  0
 19 20  4  0  0  0  0
 21 22  3  0  0  0  0
 24 25  4  0  0  0  0
M  STY  1   1 DAT
M  SAL   1  1  14
M  SDT   1 MRV_IMPLICIT_H                                        
M  SDD   1     0.0000    0.0000    DR    ALL  0       0  
M  SED   1 IMPL_H1
M  END
>  <Name_Molregno>
234135

>  <DOPAMINE D2>
5.11

>  <DOPAMINE D3>
4.89

>  <DOPAMINE D4>
8.68

$$$$
234156
  Marvin  02231216192D 0   1.00000     0.00000     0

 29 32  0  0  0  0  0  0  0  0999 V2000
   -8.0455   -0.5938    0.0000 O   0  0  0  0  0  0  0  0  0
   -8.7599   -1.0063    0.0000 C   0  0  0  0  0  0  0  0  0
   -8.0455    0.2312    0.0000 C   0  0  0  0  0  0  0  0  0
   -8.7599    0.6437    0.0000 C   0  0  0  0  0  0  0  0  0
   -8.7599    1.4687    0.0000 C   0  0  0  0  0  0  0  0  0
   -8.0455    1.8812    0.0000 C   0  0  0  0  0  0  0  0  0
   -7.3310    1.4687    0.0000 C   0  0  0  0  0  0  0  0  0
   -7.3310    0.6437    0.0000 C   0  0  0  0  0  0  0  0  0
   -6.6165    0.2312    0.0000 N   0  0  0  0  0  0  0  0  0
   -5.9021    0.6437    0.0000 C   0  0  0  0  0  0  0  0  0
   -5.1876    0.2312    0.0000 C   0  0  0  0  0  0  0  0  0
   -5.1876   -0.5938    0.0000 N   0  0  0  0  0  0  0  0  0
   -5.9021   -1.0063    0.0000 C   0  0  0  0  0  0  0  0  0
   -6.6165   -0.5938    0.0000 C   0  0  0  0  0  0  0  0  0
   -4.4731   -1.0063    0.0000 C   0  0  0  0  0  0  0  0  0
   -3.7586   -0.5938    0.0000 C   0  0  0  0  0  0  0  0  0
   -3.0442   -1.0063    0.0000 C   0  0  0  0  0  0  0  0  0
   -2.3297   -0.5938    0.0000 N   0  0  0  0  0  0  0  0  0
   -1.6152   -1.0063    0.0000 C   0  0  0  0  0  0  0  0  0
   -1.6152   -1.8313    0.0000 O   0  0  0  0  0  0  0  0  0
   -0.9008   -0.5938    0.0000 C   0  0  0  0  0  0  0  0  0
   -0.1471   -0.9293    0.0000 C   0  0  0  0  0  0  0  0  0
    0.4049   -0.3162    0.0000 N   0  0  0  0  0  0  0  0  0
   -0.0076    0.3983    0.0000 N   0  0  0  0  0  0  0  0  0
   -0.8145    0.2267    0.0000 C   0  0  0  0  0  0  0  0  0
    1.2119   -0.4877    0.0000 C   0  0  0  0  0  0  0  0  0
    1.4669   -1.2724    0.0000 C   0  0  0  0  0  0  0  0  0
    0.9148   -1.8855    0.0000 C   0  0  0  0  0  0  0  0  0
    0.1079   -1.7139    0.0000 C   0  0  0  0  0  0  0  0  0
  1  2  1  0  0  0  0
  1  3  1  0  0  0  0
  3  4  4  0  0  0  0
  3  8  4  0  0  0  0
  4  5  4  0  0  0  0
  5  6  4  0  0  0  0
  6  7  4  0  0  0  0
  7  8  4  0  0  0  0
  8  9  1  0  0  0  0
  9 10  1  0  0  0  0
  9 14  1  0  0  0  0
 10 11  1  0  0  0  0
 11 12  1  0  0  0  0
 12 13  1  0  0  0  0
 12 15  1  0  0  0  0
 13 14  1  0  0  0  0
 15 16  1  0  0  0  0
 16 17  1  0  0  0  0
 17 18  1  0  0  0  0
 18 19  1  0  0  0  0
 19 20  2  0  0  0  0
 19 21  1  0  0  0  0
 21 22  4  0  0  0  0
 21 25  4  0  0  0  0
 22 23  4  0  0  0  0
 22 29  4  0  0  0  0
 23 24  4  0  0  0  0
 23 26  4  0  0  0  0
 24 25  4  0  0  0  0
 26 27  4  0  0  0  0
 27 28  4  0  0  0  0
 28 29  4  0  0  0  0
M  END
>  <Name_Molregno>
234156

>  <DOPAMINE D2>
7.92

>  <DOPAMINE D3>
6.99

>  <DOPAMINE D4>
7.55

$$$$
234157
  Marvin  02231216192D 0   1.00000     0.00000     0

 31 34  0  0  0  0  0  0  0  0999 V2000
   -9.3945   -0.0189    0.0000 O   0  0  0  0  0  0  0  0  0
  -10.1090   -0.4314    0.0000 C   0  0  0  0  0  0  0  0  0
   -9.3945    0.8061    0.0000 C   0  0  0  0  0  0  0  0  0
  -10.1090    1.2186    0.0000 C   0  0  0  0  0  0  0  0  0
  -10.1090    2.0436    0.0000 C   0  0  0  0  0  0  0  0  0
   -9.3945    2.4561    0.0000 C   0  0  0  0  0  0  0  0  0
   -8.6800    2.0436    0.0000 C   0  0  0  0  0  0  0  0  0
   -8.6800    1.2186    0.0000 C   0  0  0  0  0  0  0  0  0
   -7.9656    0.8061    0.0000 N   0  0  0  0  0  0  0  0  0
   -7.2511    1.2186    0.0000 C   0  0  0  0  0  0  0  0  0
   -6.5366    0.8061    0.0000 C   0  0  0  0  0  0  0  0  0
   -6.5366   -0.0189    0.0000 N   0  0  0  0  0  0  0  0  0
   -7.2511   -0.4314    0.0000 C   0  0  0  0  0  0  0  0  0
   -7.9656   -0.0189    0.0000 C   0  0  0  0  0  0  0  0  0
   -5.8222   -0.4314    0.0000 C   0  0  0  0  0  0  0  0  0
   -5.1077   -0.0189    0.0000 C   0  0  0  0  0  0  0  0  0
   -4.3932   -0.4314    0.0000 C   0  0  0  0  0  0  0  0  0
   -3.6787   -0.0189    0.0000 C   0  0  0  0  0  0  0  0  0
   -2.9643   -0.4314    0.0000 C   0  0  0  0  0  0  0  0  0
   -2.2498   -0.0189    0.0000 N   0  0  0  0  0  0  0  0  0
   -1.5353   -0.4314    0.0000 C   0  0  0  0  0  0  0  0  0
   -1.5353   -1.2564    0.0000 O   0  0  0  0  0  0  0  0  0
   -0.8209   -0.0189    0.0000 C   0  0  0  0  0  0  0  0  0
   -0.0672   -0.3544    0.0000 C   0  0  0  0  0  0  0  0  0
    0.4849    0.2587    0.0000 N   0  0  0  0  0  0  0  0  0
    0.0724    0.9732    0.0000 N   0  0  0  0  0  0  0  0  0
   -0.7346    0.8016    0.0000 C   0  0  0  0  0  0  0  0  0
    1.2918    0.0872    0.0000 C   0  0  0  0  0  0  0  0  0
    1.5468   -0.6975    0.0000 C   0  0  0  0  0  0  0  0  0
    0.9947   -1.3106    0.0000 C   0  0  0  0  0  0  0  0  0
    0.1878   -1.1390    0.0000 C   0  0  0  0  0  0  0  0  0
  1  2  1  0  0  0  0
  1  3  1  0  0  0  0
  3  4  4  0  0  0  0
  3  8  4  0  0  0  0
  4  5  4  0  0  0  0
  5  6  4  0  0  0  0
  6  7  4  0  0  0  0
  7  8  4  0  0  0  0
  8  9  1  0  0  0  0
  9 10  1  0  0  0  0
  9 14  1  0  0  0  0
 10 11  1  0  0  0  0
 11 12  1  0  0  0  0
 12 13  1  0  0  0  0
 12 15  1  0  0  0  0
 13 14  1  0  0  0  0
 15 16  1  0  0  0  0
 16 17  1  0  0  0  0
 17 18  1  0  0  0  0
 18 19  1  0  0  0  0
 19 20  1  0  0  0  0
 20 21  1  0  0  0  0
 21 22  2  0  0  0  0
 21 23  1  0  0  0  0
 23 24  4  0  0  0  0
 23 27  4  0  0  0  0
 24 25  4  0  0  0  0
 24 31  4  0  0  0  0
 25 26  4  0  0  0  0
 25 28  4  0  0  0  0
 26 27  4  0  0  0  0
 28 29  4  0  0  0  0
 29 30  4  0  0  0  0
 30 31  4  0  0  0  0
M  END
>  <Name_Molregno>
234157

>  <DOPAMINE D2>
7.52

>  <DOPAMINE D3>
7.19

>  <DOPAMINE D4>
7.17

$$$$
234162
  Marvin  02231216192D 0   1.00000     0.00000     0

 26 29  0  0  0  0  0  0  0  0999 V2000
    0.6818    3.0106    0.0000 Cl  0  0  0  0  0  0  0  0  0
    0.9367    2.2260    0.0000 C   0  0  0  0  0  0  0  0  0
    1.7437    2.0545    0.0000 C   0  0  0  0  0  0  0  0  0
    1.9986    1.2698    0.0000 C   0  0  0  0  0  0  0  0  0
    2.8056    1.0983    0.0000 N   0  0  0  0  0  0  0  0  0
    3.3577    1.7114    0.0000 C   0  0  0  0  0  0  0  0  0
    4.1646    1.5399    0.0000 C   0  0  0  0  0  0  0  0  0
    4.4196    0.7553    0.0000 N   0  0  0  0  0  0  0  0  0
    3.8675    0.1422    0.0000 C   0  0  0  0  0  0  0  0  0
    3.0606    0.3137    0.0000 C   0  0  0  0  0  0  0  0  0
    5.2265    0.5837    0.0000 C   0  0  0  0  0  0  0  0  0
    5.4815   -0.2009    0.0000 C   0  0  0  0  0  0  0  0  0
    6.2661   -0.4558    0.0000 C   0  0  0  0  0  0  0  0  0
    6.9806   -0.0433    0.0000 C   0  0  0  0  0  0  0  0  0
    7.6950   -0.4558    0.0000 C   0  0  0  0  0  0  0  0  0
    7.6950   -1.2808    0.0000 C   0  0  0  0  0  0  0  0  0
    6.9806   -1.6933    0.0000 C   0  0  0  0  0  0  0  0  0
    6.2661   -1.2808    0.0000 C   0  0  0  0  0  0  0  0  0
    5.4815   -1.5358    0.0000 N   0  0  0  0  0  0  0  0  0
    4.9966   -0.8683    0.0000 C   0  0  0  0  0  0  0  0  0
    8.4095   -0.0433    0.0000 C   0  0  0  0  0  0  0  0  0
    9.1240    0.3692    0.0000 N   0  0  0  0  0  0  0  0  0
    1.4466    0.6567    0.0000 C   0  0  0  0  0  0  0  0  0
    0.6396    0.8283    0.0000 C   0  0  0  0  0  0  0  0  0
    0.3847    1.6129    0.0000 C   0  0  0  0  0  0  0  0  0
   -0.4223    1.7844    0.0000 Cl  0  0  0  0  0  0  0  0  0
  1  2  1  0  0  0  0
  2  3  4  0  0  0  0
  2 25  4  0  0  0  0
  3  4  4  0  0  0  0
  4  5  1  0  0  0  0
  4 23  4  0  0  0  0
  5  6  1  0  0  0  0
  5 10  1  0  0  0  0
  6  7  1  0  0  0  0
  7  8  1  0  0  0  0
  8  9  1  0  0  0  0
  8 11  1  0  0  0  0
  9 10  1  0  0  0  0
 11 12  1  0  0  0  0
 12 13  4  0  0  0  0
 12 20  4  0  0  0  0
 13 14  4  0  0  0  0
 13 18  4  0  0  0  0
 14 15  4  0  0  0  0
 15 16  4  0  0  0  0
 15 21  1  0  0  0  0
 16 17  4  0  0  0  0
 17 18  4  0  0  0  0
 18 19  4  0  0  0  0
 19 20  4  0  0  0  0
 21 22  3  0  0  0  0
 23 24  4  0  0  0  0
 24 25  4  0  0  0  0
 25 26  1  0  0  0  0
M  STY  1   1 DAT
M  SAL   1  1  19
M  SDT   1 MRV_IMPLICIT_H                                        
M  SDD   1     0.0000    0.0000    DR    ALL  0       0  
M  SED   1 IMPL_H1
M  END
>  <Name_Molregno>
234162

>  <DOPAMINE D2>
6.21

>  <DOPAMINE D3>
6.06

>  <DOPAMINE D4>
7.66

$$$$
234165
  Marvin  02231216192D 0   1.00000     0.00000     0

 26 29  0  0  0  0  0  0  0  0999 V2000
    0.4419   -2.1189    0.0000 Cl  0  0  0  0  0  0  0  0  0
    1.2669   -2.1189    0.0000 C   0  0  0  0  0  0  0  0  0
    1.6794   -1.4044    0.0000 C   0  0  0  0  0  0  0  0  0
    2.5044   -1.4044    0.0000 C   0  0  0  0  0  0  0  0  0
    2.9169   -0.6899    0.0000 N   0  0  0  0  0  0  0  0  0
    2.5044    0.0245    0.0000 C   0  0  0  0  0  0  0  0  0
    2.9169    0.7390    0.0000 C   0  0  0  0  0  0  0  0  0
    3.7419    0.7390    0.0000 N   0  0  0  0  0  0  0  0  0
    4.1544    0.0245    0.0000 C   0  0  0  0  0  0  0  0  0
    3.7419   -0.6899    0.0000 C   0  0  0  0  0  0  0  0  0
    4.1544    1.4535    0.0000 C   0  0  0  0  0  0  0  0  0
    4.9794    1.4535    0.0000 C   0  0  0  0  0  0  0  0  0
    5.4643    0.7860    0.0000 N   0  0  0  0  0  0  0  0  0
    6.2489    1.0410    0.0000 C   0  0  0  0  0  0  0  0  0
    6.2489    1.8660    0.0000 C   0  0  0  0  0  0  0  0  0
    6.9634    2.2785    0.0000 C   0  0  0  0  0  0  0  0  0
    7.6779    1.8660    0.0000 C   0  0  0  0  0  0  0  0  0
    7.6779    1.0410    0.0000 C   0  0  0  0  0  0  0  0  0
    6.9634    0.6285    0.0000 C   0  0  0  0  0  0  0  0  0
    8.3923    2.2785    0.0000 C   0  0  0  0  0  0  0  0  0
    9.1068    2.6910    0.0000 N   0  0  0  0  0  0  0  0  0
    5.4643    2.1209    0.0000 C   0  0  0  0  0  0  0  0  0
    2.9169   -2.1189    0.0000 C   0  0  0  0  0  0  0  0  0
    2.5044   -2.8334    0.0000 C   0  0  0  0  0  0  0  0  0
    1.6794   -2.8334    0.0000 C   0  0  0  0  0  0  0  0  0
    1.2669   -3.5478    0.0000 Cl  0  0  0  0  0  0  0  0  0
  1  2  1  0  0  0  0
  2  3  4  0  0  0  0
  2 25  4  0  0  0  0
  3  4  4  0  0  0  0
  4  5  1  0  0  0  0
  4 23  4  0  0  0  0
  5  6  1  0  0  0  0
  5 10  1  0  0  0  0
  6  7  1  0  0  0  0
  7  8  1  0  0  0  0
  8  9  1  0  0  0  0
  8 11  1  0  0  0  0
  9 10  1  0  0  0  0
 11 12  1  0  0  0  0
 12 13  4  0  0  0  0
 12 22  4  0  0  0  0
 13 14  4  0  0  0  0
 14 15  4  0  0  0  0
 14 19  4  0  0  0  0
 15 16  4  0  0  0  0
 15 22  4  0  0  0  0
 16 17  4  0  0  0  0
 17 18  4  0  0  0  0
 17 20  1  0  0  0  0
 18 19  4  0  0  0  0
 20 21  3  0  0  0  0
 23 24  4  0  0  0  0
 24 25  4  0  0  0  0
 25 26  1  0  0  0  0
M  STY  1   1 DAT
M  SAL   1  1  13
M  SDT   1 MRV_IMPLICIT_H                                        
M  SDD   1     0.0000    0.0000    DR    ALL  0       0  
M  SED   1 IMPL_H1
M  END
>  <Name_Molregno>
234165

>  <DOPAMINE D2>
4.41

>  <DOPAMINE D3>
4.7

>  <DOPAMINE D4>
8.12

$$$$
234167
  Marvin  02231216192D 0   1.00000     0.00000     0

 26 29  0  0  0  0  0  0  0  0999 V2000
    0.4419   -2.1189    0.0000 Cl  0  0  0  0  0  0  0  0  0
    1.2669   -2.1189    0.0000 C   0  0  0  0  0  0  0  0  0
    1.6794   -1.4044    0.0000 C   0  0  0  0  0  0  0  0  0
    2.5044   -1.4044    0.0000 C   0  0  0  0  0  0  0  0  0
    2.9169   -0.6899    0.0000 N   0  0  0  0  0  0  0  0  0
    2.5044    0.0245    0.0000 C   0  0  0  0  0  0  0  0  0
    2.9169    0.7390    0.0000 C   0  0  0  0  0  0  0  0  0
    3.7419    0.7390    0.0000 N   0  0  0  0  0  0  0  0  0
    4.1544    0.0245    0.0000 C   0  0  0  0  0  0  0  0  0
    3.7419   -0.6899    0.0000 C   0  0  0  0  0  0  0  0  0
    4.1544    1.4535    0.0000 C   0  0  0  0  0  0  0  0  0
    4.9794    1.4535    0.0000 C   0  0  0  0  0  0  0  0  0
    5.4643    2.1209    0.0000 N   0  0  0  0  0  0  0  0  0
    6.2489    1.8660    0.0000 C   0  0  0  0  0  0  0  0  0
    6.9634    2.2785    0.0000 C   0  0  0  0  0  0  0  0  0
    7.6779    1.8660    0.0000 C   0  0  0  0  0  0  0  0  0
    7.6779    1.0410    0.0000 C   0  0  0  0  0  0  0  0  0
    6.9634    0.6285    0.0000 C   0  0  0  0  0  0  0  0  0
    6.2489    1.0410    0.0000 C   0  0  0  0  0  0  0  0  0
    5.4643    0.7860    0.0000 C   0  0  0  0  0  0  0  0  0
    8.3923    2.2785    0.0000 C   0  0  0  0  0  0  0  0  0
    9.1068    2.6910    0.0000 N   0  0  0  0  0  0  0  0  0
    2.9169   -2.1189    0.0000 C   0  0  0  0  0  0  0  0  0
    2.5044   -2.8334    0.0000 C   0  0  0  0  0  0  0  0  0
    1.6794   -2.8334    0.0000 C   0  0  0  0  0  0  0  0  0
    1.2669   -3.5478    0.0000 Cl  0  0  0  0  0  0  0  0  0
  1  2  1  0  0  0  0
  2  3  4  0  0  0  0
  2 25  4  0  0  0  0
  3  4  4  0  0  0  0
  4  5  1  0  0  0  0
  4 23  4  0  0  0  0
  5  6  1  0  0  0  0
  5 10  1  0  0  0  0
  6  7  1  0  0  0  0
  7  8  1  0  0  0  0
  8  9  1  0  0  0  0
  8 11  1  0  0  0  0
  9 10  1  0  0  0  0
 11 12  1  0  0  0  0
 12 13  4  0  0  0  0
 12 20  4  0  0  0  0
 13 14  4  0  0  0  0
 14 15  4  0  0  0  0
 14 19  4  0  0  0  0
 15 16  4  0  0  0  0
 16 17  4  0  0  0  0
 16 21  1  0  0  0  0
 17 18  4  0  0  0  0
 18 19  4  0  0  0  0
 19 20  4  0  0  0  0
 21 22  3  0  0  0  0
 23 24  4  0  0  0  0
 24 25  4  0  0  0  0
 25 26  1  0  0  0  0
M  STY  1   1 DAT
M  SAL   1  1  13
M  SDT   1 MRV_IMPLICIT_H                                        
M  SDD   1     0.0000    0.0000    DR    ALL  0       0  
M  SED   1 IMPL_H1
M  END
>  <Name_Molregno>
234167

>  <DOPAMINE D2>
5.77

>  <DOPAMINE D3>
4.48

>  <DOPAMINE D4>
8.05

$$$$
234168
  Marvin  02231216192D 0   1.00000     0.00000     0

 25 28  0  0  0  0  0  0  0  0999 V2000
   -4.0857   -3.1191    0.0000 Cl  0  0  0  0  0  0  0  0  0
   -4.9107   -3.1191    0.0000 C   0  0  0  0  0  0  0  0  0
   -5.3232   -3.8336    0.0000 C   0  0  0  0  0  0  0  0  0
   -6.1482   -3.8336    0.0000 C   0  0  0  0  0  0  0  0  0
   -6.5607   -3.1191    0.0000 C   0  0  0  0  0  0  0  0  0
   -6.1482   -2.4046    0.0000 C   0  0  0  0  0  0  0  0  0
   -5.3232   -2.4046    0.0000 C   0  0  0  0  0  0  0  0  0
   -4.9107   -1.6902    0.0000 N   0  0  0  0  0  0  0  0  0
   -5.3232   -0.9757    0.0000 C   0  0  0  0  0  0  0  0  0
   -4.9107   -0.2612    0.0000 C   0  0  0  0  0  0  0  0  0
   -4.0857   -0.2612    0.0000 N   0  0  0  0  0  0  0  0  0
   -3.6732   -0.9757    0.0000 C   0  0  0  0  0  0  0  0  0
   -4.0857   -1.6902    0.0000 C   0  0  0  0  0  0  0  0  0
   -3.6732    0.4532    0.0000 C   0  0  0  0  0  0  0  0  0
   -2.8482    0.4532    0.0000 C   0  0  0  0  0  0  0  0  0
   -2.3633   -0.2142    0.0000 N   0  0  0  0  0  0  0  0  0
   -1.5786    0.0407    0.0000 C   0  0  0  0  0  0  0  0  0
   -1.5786    0.8657    0.0000 C   0  0  0  0  0  0  0  0  0
   -0.8642    1.2782    0.0000 C   0  0  0  0  0  0  0  0  0
   -0.1497    0.8657    0.0000 C   0  0  0  0  0  0  0  0  0
   -0.1497    0.0407    0.0000 C   0  0  0  0  0  0  0  0  0
   -0.8642   -0.3718    0.0000 C   0  0  0  0  0  0  0  0  0
    0.5648    1.2782    0.0000 C   0  0  0  0  0  0  0  0  0
    1.2792    1.6907    0.0000 N   0  0  0  0  0  0  0  0  0
   -2.3633    1.1207    0.0000 C   0  0  0  0  0  0  0  0  0
  1  2  1  0  0  0  0
  2  3  4  0  0  0  0
  2  7  4  0  0  0  0
  3  4  4  0  0  0  0
  4  5  4  0  0  0  0
  5  6  4  0  0  0  0
  6  7  4  0  0  0  0
  7  8  1  0  0  0  0
  8  9  1  0  0  0  0
  8 13  1  0  0  0  0
  9 10  1  0  0  0  0
 10 11  1  0  0  0  0
 11 12  1  0  0  0  0
 11 14  1  0  0  0  0
 12 13  1  0  0  0  0
 14 15  1  0  0  0  0
 15 16  4  0  0  0  0
 15 25  4  0  0  0  0
 16 17  4  0  0  0  0
 17 18  4  0  0  0  0
 17 22  4  0  0  0  0
 18 19  4  0  0  0  0
 18 25  4  0  0  0  0
 19 20  4  0  0  0  0
 20 21  4  0  0  0  0
 20 23  1  0  0  0  0
 21 22  4  0  0  0  0
 23 24  3  0  0  0  0
M  STY  1   1 DAT
M  SAL   1  1  16
M  SDT   1 MRV_IMPLICIT_H                                        
M  SDD   1     0.0000    0.0000    DR    ALL  0       0  
M  SED   1 IMPL_H1
M  END
>  <Name_Molregno>
234168

>  <DOPAMINE D2>
5.83

>  <DOPAMINE D3>
5.77

>  <DOPAMINE D4>
8.85

$$$$
234169
  Marvin  02231216192D 0   1.00000     0.00000     0

 24 27  0  0  0  0  0  0  0  0999 V2000
   -0.1165   -2.0247    0.0000 N   0  0  0  0  0  0  0  0  0
    0.6681   -1.7697    0.0000 C   0  0  0  0  0  0  0  0  0
    0.6681   -0.9447    0.0000 C   0  0  0  0  0  0  0  0  0
    1.3826   -0.5322    0.0000 C   0  0  0  0  0  0  0  0  0
    2.0970   -0.9447    0.0000 C   0  0  0  0  0  0  0  0  0
    2.0970   -1.7697    0.0000 C   0  0  0  0  0  0  0  0  0
    1.3826   -2.1822    0.0000 C   0  0  0  0  0  0  0  0  0
    2.8115   -0.5322    0.0000 C   0  0  0  0  0  0  0  0  0
    3.5260   -0.1197    0.0000 N   0  0  0  0  0  0  0  0  0
   -0.1165   -0.6898    0.0000 C   0  0  0  0  0  0  0  0  0
   -0.6014   -1.3572    0.0000 C   0  0  0  0  0  0  0  0  0
   -1.4264   -1.3572    0.0000 C   0  0  0  0  0  0  0  0  0
   -1.8389   -0.6428    0.0000 N   0  0  0  0  0  0  0  0  0
   -2.6639   -0.6428    0.0000 C   0  0  0  0  0  0  0  0  0
   -3.0764    0.0717    0.0000 C   0  0  0  0  0  0  0  0  0
   -2.6639    0.7862    0.0000 N   0  0  0  0  0  0  0  0  0
   -1.8389    0.7862    0.0000 C   0  0  0  0  0  0  0  0  0
   -1.4264    0.0717    0.0000 C   0  0  0  0  0  0  0  0  0
   -3.0764    1.5007    0.0000 C   0  0  0  0  0  0  0  0  0
   -3.9014    1.5007    0.0000 C   0  0  0  0  0  0  0  0  0
   -4.3139    2.2151    0.0000 C   0  0  0  0  0  0  0  0  0
   -3.9014    2.9296    0.0000 C   0  0  0  0  0  0  0  0  0
   -3.0764    2.9296    0.0000 C   0  0  0  0  0  0  0  0  0
   -2.6639    2.2151    0.0000 C   0  0  0  0  0  0  0  0  0
  1  2  4  0  0  0  0
  1 11  4  0  0  0  0
  2  3  4  0  0  0  0
  2  7  4  0  0  0  0
  3  4  4  0  0  0  0
  3 10  4  0  0  0  0
  4  5  4  0  0  0  0
  5  6  4  0  0  0  0
  5  8  1  0  0  0  0
  6  7  4  0  0  0  0
  8  9  3  0  0  0  0
 10 11  4  0  0  0  0
 11 12  1  0  0  0  0
 12 13  1  0  0  0  0
 13 14  1  0  0  0  0
 13 18  1  0  0  0  0
 14 15  1  0  0  0  0
 15 16  1  0  0  0  0
 16 17  1  0  0  0  0
 16 19  1  0  0  0  0
 17 18  1  0  0  0  0
 19 20  4  0  0  0  0
 19 24  4  0  0  0  0
 20 21  4  0  0  0  0
 21 22  4  0  0  0  0
 22 23  4  0  0  0  0
 23 24  4  0  0  0  0
M  STY  1   1 DAT
M  SAL   1  1   1
M  SDT   1 MRV_IMPLICIT_H                                        
M  SDD   1     0.0000    0.0000    DR    ALL  0       0  
M  SED   1 IMPL_H1
M  END
>  <Name_Molregno>
234169

>  <DOPAMINE D2>
6.03

>  <DOPAMINE D3>
5.77

>  <DOPAMINE D4>
9.28

$$$$
234194
  Marvin  02231216192D 0   1.00000     0.00000     0

 24 27  0  0  0  0  0  0  0  0999 V2000
    2.4573    0.8027    0.0000 N   0  0  0  0  0  0  0  0  0
    3.2419    0.5478    0.0000 C   0  0  0  0  0  0  0  0  0
    3.9564    0.9603    0.0000 C   0  0  0  0  0  0  0  0  0
    4.6708    0.5478    0.0000 C   0  0  0  0  0  0  0  0  0
    4.6708   -0.2772    0.0000 C   0  0  0  0  0  0  0  0  0
    3.9564   -0.6897    0.0000 C   0  0  0  0  0  0  0  0  0
    3.2419   -0.2772    0.0000 C   0  0  0  0  0  0  0  0  0
    2.4573   -0.5322    0.0000 C   0  0  0  0  0  0  0  0  0
    1.9723    0.1353    0.0000 C   0  0  0  0  0  0  0  0  0
    1.1473    0.1353    0.0000 C   0  0  0  0  0  0  0  0  0
    0.7348   -0.5792    0.0000 N   0  0  0  0  0  0  0  0  0
    1.1473   -1.2937    0.0000 C   0  0  0  0  0  0  0  0  0
    0.7348   -2.0082    0.0000 C   0  0  0  0  0  0  0  0  0
   -0.0902   -2.0082    0.0000 N   0  0  0  0  0  0  0  0  0
   -0.5027   -1.2937    0.0000 C   0  0  0  0  0  0  0  0  0
   -0.0902   -0.5792    0.0000 C   0  0  0  0  0  0  0  0  0
   -0.5027   -2.7226    0.0000 C   0  0  0  0  0  0  0  0  0
   -0.0902   -3.4371    0.0000 C   0  0  0  0  0  0  0  0  0
   -0.5027   -4.1516    0.0000 C   0  0  0  0  0  0  0  0  0
   -1.3277   -4.1516    0.0000 C   0  0  0  0  0  0  0  0  0
   -1.7402   -3.4371    0.0000 C   0  0  0  0  0  0  0  0  0
   -1.3277   -2.7226    0.0000 C   0  0  0  0  0  0  0  0  0
    5.3853    0.9603    0.0000 C   0  0  0  0  0  0  0  0  0
    6.0998    1.3728    0.0000 N   0  0  0  0  0  0  0  0  0
  1  2  4  0  0  0  0
  1  9  4  0  0  0  0
  2  3  4  0  0  0  0
  2  7  4  0  0  0  0
  3  4  4  0  0  0  0
  4  5  4  0  0  0  0
  4 23  1  0  0  0  0
  5  6  4  0  0  0  0
  6  7  4  0  0  0  0
  7  8  4  0  0  0  0
  8  9  4  0  0  0  0
  9 10  1  0  0  0  0
 10 11  1  0  0  0  0
 11 12  1  0  0  0  0
 11 16  1  0  0  0  0
 12 13  1  0  0  0  0
 13 14  1  0  0  0  0
 14 15  1  0  0  0  0
 14 17  1  0  0  0  0
 15 16  1  0  0  0  0
 17 18  4  0  0  0  0
 17 22  4  0  0  0  0
 18 19  4  0  0  0  0
 19 20  4  0  0  0  0
 20 21  4  0  0  0  0
 21 22  4  0  0  0  0
 23 24  3  0  0  0  0
M  STY  1   1 DAT
M  SAL   1  1   1
M  SDT   1 MRV_IMPLICIT_H                                        
M  SDD   1     0.0000    0.0000    DR    ALL  0       0  
M  SED   1 IMPL_H1
M  END
>  <Name_Molregno>
234194

>  <DOPAMINE D2>
5.42

>  <DOPAMINE D3>
5.51

>  <DOPAMINE D4>
8.44

$$$$
234195
  Marvin  02231216192D 0   1.00000     0.00000     0

 25 28  0  0  0  0  0  0  0  0999 V2000
    1.4305   -2.7045    0.0000 F   0  0  0  0  0  0  0  0  0
    1.8430   -1.9900    0.0000 C   0  0  0  0  0  0  0  0  0
    1.4305   -1.2756    0.0000 C   0  0  0  0  0  0  0  0  0
    1.8430   -0.5611    0.0000 C   0  0  0  0  0  0  0  0  0
    2.6680   -0.5611    0.0000 C   0  0  0  0  0  0  0  0  0
    3.0805    0.1534    0.0000 N   0  0  0  0  0  0  0  0  0
    2.6680    0.8678    0.0000 C   0  0  0  0  0  0  0  0  0
    3.0805    1.5823    0.0000 C   0  0  0  0  0  0  0  0  0
    3.9055    1.5823    0.0000 N   0  0  0  0  0  0  0  0  0
    4.3180    0.8678    0.0000 C   0  0  0  0  0  0  0  0  0
    3.9055    0.1534    0.0000 C   0  0  0  0  0  0  0  0  0
    4.3180    2.2968    0.0000 C   0  0  0  0  0  0  0  0  0
    5.1430    2.2968    0.0000 C   0  0  0  0  0  0  0  0  0
    5.6280    1.6293    0.0000 N   0  0  0  0  0  0  0  0  0
    6.4126    1.8843    0.0000 C   0  0  0  0  0  0  0  0  0
    6.4126    2.7093    0.0000 C   0  0  0  0  0  0  0  0  0
    7.1270    3.1218    0.0000 C   0  0  0  0  0  0  0  0  0
    7.8415    2.7093    0.0000 C   0  0  0  0  0  0  0  0  0
    7.8415    1.8843    0.0000 C   0  0  0  0  0  0  0  0  0
    7.1270    1.4718    0.0000 C   0  0  0  0  0  0  0  0  0
    8.5560    3.1218    0.0000 C   0  0  0  0  0  0  0  0  0
    9.2705    3.5343    0.0000 N   0  0  0  0  0  0  0  0  0
    5.6280    2.9642    0.0000 C   0  0  0  0  0  0  0  0  0
    3.0805   -1.2756    0.0000 C   0  0  0  0  0  0  0  0  0
    2.6680   -1.9900    0.0000 C   0  0  0  0  0  0  0  0  0
  1  2  1  0  0  0  0
  2  3  4  0  0  0  0
  2 25  4  0  0  0  0
  3  4  4  0  0  0  0
  4  5  4  0  0  0  0
  5  6  1  0  0  0  0
  5 24  4  0  0  0  0
  6  7  1  0  0  0  0
  6 11  1  0  0  0  0
  7  8  1  0  0  0  0
  8  9  1  0  0  0  0
  9 10  1  0  0  0  0
  9 12  1  0  0  0  0
 10 11  1  0  0  0  0
 12 13  1  0  0  0  0
 13 14  4  0  0  0  0
 13 23  4  0  0  0  0
 14 15  4  0  0  0  0
 15 16  4  0  0  0  0
 15 20  4  0  0  0  0
 16 17  4  0  0  0  0
 16 23  4  0  0  0  0
 17 18  4  0  0  0  0
 18 19  4  0  0  0  0
 18 21  1  0  0  0  0
 19 20  4  0  0  0  0
 21 22  3  0  0  0  0
 24 25  4  0  0  0  0
M  STY  1   1 DAT
M  SAL   1  1  14
M  SDT   1 MRV_IMPLICIT_H                                        
M  SDD   1     0.0000    0.0000    DR    ALL  0       0  
M  SED   1 IMPL_H1
M  END
>  <Name_Molregno>
234195

>  <DOPAMINE D2>
4.64

>  <DOPAMINE D3>
4.82

>  <DOPAMINE D4>
9

$$$$
234235
  Marvin  02231216192D 0   1.00000     0.00000     0

 25 28  0  0  0  0  0  0  0  0999 V2000
    0.0643    1.7721    0.0000 Cl  0  0  0  0  0  0  0  0  0
    0.8713    1.6006    0.0000 C   0  0  0  0  0  0  0  0  0
    1.4234    2.2137    0.0000 C   0  0  0  0  0  0  0  0  0
    2.2303    2.0422    0.0000 C   0  0  0  0  0  0  0  0  0
    2.4853    1.2575    0.0000 C   0  0  0  0  0  0  0  0  0
    3.2922    1.0860    0.0000 N   0  0  0  0  0  0  0  0  0
    3.8443    1.6991    0.0000 C   0  0  0  0  0  0  0  0  0
    4.6512    1.5276    0.0000 C   0  0  0  0  0  0  0  0  0
    4.9062    0.7430    0.0000 N   0  0  0  0  0  0  0  0  0
    4.3541    0.1299    0.0000 C   0  0  0  0  0  0  0  0  0
    3.5472    0.3014    0.0000 C   0  0  0  0  0  0  0  0  0
    5.7131    0.5714    0.0000 C   0  0  0  0  0  0  0  0  0
    5.9681   -0.2132    0.0000 C   0  0  0  0  0  0  0  0  0
    6.7527   -0.4681    0.0000 C   0  0  0  0  0  0  0  0  0
    7.4672   -0.0556    0.0000 C   0  0  0  0  0  0  0  0  0
    8.1817   -0.4681    0.0000 C   0  0  0  0  0  0  0  0  0
    8.1817   -1.2931    0.0000 C   0  0  0  0  0  0  0  0  0
    7.4672   -1.7056    0.0000 C   0  0  0  0  0  0  0  0  0
    6.7527   -1.2931    0.0000 C   0  0  0  0  0  0  0  0  0
    5.9681   -1.5481    0.0000 N   0  0  0  0  0  0  0  0  0
    5.4832   -0.8806    0.0000 C   0  0  0  0  0  0  0  0  0
    8.8961   -0.0556    0.0000 C   0  0  0  0  0  0  0  0  0
    9.6106    0.3569    0.0000 N   0  0  0  0  0  0  0  0  0
    1.9332    0.6444    0.0000 C   0  0  0  0  0  0  0  0  0
    1.1263    0.8160    0.0000 C   0  0  0  0  0  0  0  0  0
  1  2  1  0  0  0  0
  2  3  4  0  0  0  0
  2 25  4  0  0  0  0
  3  4  4  0  0  0  0
  4  5  4  0  0  0  0
  5  6  1  0  0  0  0
  5 24  4  0  0  0  0
  6  7  1  0  0  0  0
  6 11  1  0  0  0  0
  7  8  1  0  0  0  0
  8  9  1  0  0  0  0
  9 10  1  0  0  0  0
  9 12  1  0  0  0  0
 10 11  1  0  0  0  0
 12 13  1  0  0  0  0
 13 14  4  0  0  0  0
 13 21  4  0  0  0  0
 14 15  4  0  0  0  0
 14 19  4  0  0  0  0
 15 16  4  0  0  0  0
 16 17  4  0  0  0  0
 16 22  1  0  0  0  0
 17 18  4  0  0  0  0
 18 19  4  0  0  0  0
 19 20  4  0  0  0  0
 20 21  4  0  0  0  0
 22 23  3  0  0  0  0
 24 25  4  0  0  0  0
M  STY  1   1 DAT
M  SAL   1  1  20
M  SDT   1 MRV_IMPLICIT_H                                        
M  SDD   1     0.0000    0.0000    DR    ALL  0       0  
M  SED   1 IMPL_H1
M  END
>  <Name_Molregno>
234235

>  <DOPAMINE D2>
5.48

>  <DOPAMINE D3>
5.19

>  <DOPAMINE D4>
7.54

$$$$
234236
  Marvin  02231216192D 0   1.00000     0.00000     0

 25 28  0  0  0  0  0  0  0  0999 V2000
    0.0643    1.7721    0.0000 F   0  0  0  0  0  0  0  0  0
    0.8713    1.6006    0.0000 C   0  0  0  0  0  0  0  0  0
    1.4234    2.2137    0.0000 C   0  0  0  0  0  0  0  0  0
    2.2303    2.0422    0.0000 C   0  0  0  0  0  0  0  0  0
    2.4853    1.2575    0.0000 C   0  0  0  0  0  0  0  0  0
    3.2922    1.0860    0.0000 N   0  0  0  0  0  0  0  0  0
    3.8443    1.6991    0.0000 C   0  0  0  0  0  0  0  0  0
    4.6512    1.5276    0.0000 C   0  0  0  0  0  0  0  0  0
    4.9062    0.7430    0.0000 N   0  0  0  0  0  0  0  0  0
    4.3541    0.1299    0.0000 C   0  0  0  0  0  0  0  0  0
    3.5472    0.3014    0.0000 C   0  0  0  0  0  0  0  0  0
    5.7131    0.5714    0.0000 C   0  0  0  0  0  0  0  0  0
    5.9681   -0.2132    0.0000 C   0  0  0  0  0  0  0  0  0
    6.7527   -0.4681    0.0000 C   0  0  0  0  0  0  0  0  0
    7.4672   -0.0556    0.0000 C   0  0  0  0  0  0  0  0  0
    8.1817   -0.4681    0.0000 C   0  0  0  0  0  0  0  0  0
    8.1817   -1.2931    0.0000 C   0  0  0  0  0  0  0  0  0
    7.4672   -1.7056    0.0000 C   0  0  0  0  0  0  0  0  0
    6.7527   -1.2931    0.0000 C   0  0  0  0  0  0  0  0  0
    5.9681   -1.5481    0.0000 N   0  0  0  0  0  0  0  0  0
    5.4832   -0.8806    0.0000 C   0  0  0  0  0  0  0  0  0
    8.8961   -0.0556    0.0000 C   0  0  0  0  0  0  0  0  0
    9.6106    0.3569    0.0000 N   0  0  0  0  0  0  0  0  0
    1.9332    0.6444    0.0000 C   0  0  0  0  0  0  0  0  0
    1.1263    0.8160    0.0000 C   0  0  0  0  0  0  0  0  0
  1  2  1  0  0  0  0
  2  3  4  0  0  0  0
  2 25  4  0  0  0  0
  3  4  4  0  0  0  0
  4  5  4  0  0  0  0
  5  6  1  0  0  0  0
  5 24  4  0  0  0  0
  6  7  1  0  0  0  0
  6 11  1  0  0  0  0
  7  8  1  0  0  0  0
  8  9  1  0  0  0  0
  9 10  1  0  0  0  0
  9 12  1  0  0  0  0
 10 11  1  0  0  0  0
 12 13  1  0  0  0  0
 13 14  4  0  0  0  0
 13 21  4  0  0  0  0
 14 15  4  0  0  0  0
 14 19  4  0  0  0  0
 15 16  4  0  0  0  0
 16 17  4  0  0  0  0
 16 22  1  0  0  0  0
 17 18  4  0  0  0  0
 18 19  4  0  0  0  0
 19 20  4  0  0  0  0
 20 21  4  0  0  0  0
 22 23  3  0  0  0  0
 24 25  4  0  0  0  0
M  STY  1   1 DAT
M  SAL   1  1  20
M  SDT   1 MRV_IMPLICIT_H                                        
M  SDD   1     0.0000    0.0000    DR    ALL  0       0  
M  SED   1 IMPL_H1
M  END
>  <Name_Molregno>
234236

>  <DOPAMINE D2>
5.68

>  <DOPAMINE D3>
5.28

>  <DOPAMINE D4>
6.96

$$$$
234274
  Marvin  02231216192D 0   1.00000     0.00000     0

 25 28  0  0  0  0  0  0  0  0999 V2000
   -5.7961   -0.6294    0.0000 Cl  0  0  0  0  0  0  0  0  0
   -6.0511    0.1552    0.0000 C   0  0  0  0  0  0  0  0  0
   -6.8581    0.3267    0.0000 C   0  0  0  0  0  0  0  0  0
   -7.1130    1.1114    0.0000 C   0  0  0  0  0  0  0  0  0
   -6.5610    1.7245    0.0000 C   0  0  0  0  0  0  0  0  0
   -5.7540    1.5529    0.0000 C   0  0  0  0  0  0  0  0  0
   -5.4991    0.7683    0.0000 C   0  0  0  0  0  0  0  0  0
   -4.6921    0.5968    0.0000 N   0  0  0  0  0  0  0  0  0
   -4.1401    1.2099    0.0000 C   0  0  0  0  0  0  0  0  0
   -3.3331    1.0384    0.0000 C   0  0  0  0  0  0  0  0  0
   -3.0781    0.2537    0.0000 N   0  0  0  0  0  0  0  0  0
   -3.6302   -0.3594    0.0000 C   0  0  0  0  0  0  0  0  0
   -4.4371   -0.1878    0.0000 C   0  0  0  0  0  0  0  0  0
   -2.2712    0.0822    0.0000 C   0  0  0  0  0  0  0  0  0
   -2.0162   -0.7024    0.0000 C   0  0  0  0  0  0  0  0  0
   -1.2316   -0.9574    0.0000 C   0  0  0  0  0  0  0  0  0
   -0.5171   -0.5449    0.0000 C   0  0  0  0  0  0  0  0  0
    0.1973   -0.9574    0.0000 C   0  0  0  0  0  0  0  0  0
    0.1973   -1.7824    0.0000 C   0  0  0  0  0  0  0  0  0
   -0.5171   -2.1949    0.0000 C   0  0  0  0  0  0  0  0  0
   -1.2316   -1.7824    0.0000 C   0  0  0  0  0  0  0  0  0
   -2.0162   -2.0373    0.0000 N   0  0  0  0  0  0  0  0  0
   -2.5012   -1.3699    0.0000 C   0  0  0  0  0  0  0  0  0
    0.9118   -0.5449    0.0000 C   0  0  0  0  0  0  0  0  0
    1.6263   -0.1324    0.0000 N   0  0  0  0  0  0  0  0  0
  1  2  1  0  0  0  0
  2  3  4  0  0  0  0
  2  7  4  0  0  0  0
  3  4  4  0  0  0  0
  4  5  4  0  0  0  0
  5  6  4  0  0  0  0
  6  7  4  0  0  0  0
  7  8  1  0  0  0  0
  8  9  1  0  0  0  0
  8 13  1  0  0  0  0
  9 10  1  0  0  0  0
 10 11  1  0  0  0  0
 11 12  1  0  0  0  0
 11 14  1  0  0  0  0
 12 13  1  0  0  0  0
 14 15  1  0  0  0  0
 15 16  4  0  0  0  0
 15 23  4  0  0  0  0
 16 17  4  0  0  0  0
 16 21  4  0  0  0  0
 17 18  4  0  0  0  0
 18 19  4  0  0  0  0
 18 24  1  0  0  0  0
 19 20  4  0  0  0  0
 20 21  4  0  0  0  0
 21 22  4  0  0  0  0
 22 23  4  0  0  0  0
 24 25  3  0  0  0  0
M  STY  1   1 DAT
M  SAL   1  1  22
M  SDT   1 MRV_IMPLICIT_H                                        
M  SDD   1     0.0000    0.0000    DR    ALL  0       0  
M  SED   1 IMPL_H1
M  END
>  <Name_Molregno>
234274

>  <DOPAMINE D2>
6.06

>  <DOPAMINE D3>
6.26

>  <DOPAMINE D4>
7.77

$$$$
234375
  Marvin  02231216192D 0   1.00000     0.00000     0

 30 33  0  0  0  0  0  0  0  0999 V2000
   -8.7727   -0.1050    0.0000 O   0  0  0  0  0  0  0  0  0
   -9.4871   -0.5175    0.0000 C   0  0  0  0  0  0  0  0  0
   -8.7727    0.7200    0.0000 C   0  0  0  0  0  0  0  0  0
   -9.4871    1.1325    0.0000 C   0  0  0  0  0  0  0  0  0
   -9.4871    1.9575    0.0000 C   0  0  0  0  0  0  0  0  0
   -8.7727    2.3700    0.0000 C   0  0  0  0  0  0  0  0  0
   -8.0582    1.9575    0.0000 C   0  0  0  0  0  0  0  0  0
   -8.0582    1.1325    0.0000 C   0  0  0  0  0  0  0  0  0
   -7.3437    0.7200    0.0000 N   0  0  0  0  0  0  0  0  0
   -6.6292    1.1325    0.0000 C   0  0  0  0  0  0  0  0  0
   -5.9148    0.7200    0.0000 C   0  0  0  0  0  0  0  0  0
   -5.9148   -0.1050    0.0000 N   0  0  0  0  0  0  0  0  0
   -6.6292   -0.5175    0.0000 C   0  0  0  0  0  0  0  0  0
   -7.3437   -0.1050    0.0000 C   0  0  0  0  0  0  0  0  0
   -5.2003   -0.5175    0.0000 C   0  0  0  0  0  0  0  0  0
   -4.4858   -0.1050    0.0000 C   0  0  0  0  0  0  0  0  0
   -3.7714   -0.5175    0.0000 C   0  0  0  0  0  0  0  0  0
   -3.0569   -0.1050    0.0000 C   0  0  0  0  0  0  0  0  0
   -2.3424   -0.5175    0.0000 N   0  0  0  0  0  0  0  0  0
   -1.6279   -0.1050    0.0000 C   0  0  0  0  0  0  0  0  0
   -1.6279    0.7200    0.0000 O   0  0  0  0  0  0  0  0  0
   -0.9135   -0.5175    0.0000 C   0  0  0  0  0  0  0  0  0
   -0.8272   -1.3380    0.0000 N   0  0  0  0  0  0  0  0  0
   -0.0203   -1.5095    0.0000 N   0  0  0  0  0  0  0  0  0
    0.3922   -0.7951    0.0000 C   0  0  0  0  0  0  0  0  0
   -0.1598   -0.1820    0.0000 C   0  0  0  0  0  0  0  0  0
    1.2172   -0.7951    0.0000 C   0  0  0  0  0  0  0  0  0
    1.6297   -1.5095    0.0000 C   0  0  0  0  0  0  0  0  0
    1.2172   -2.2240    0.0000 C   0  0  0  0  0  0  0  0  0
    0.3922   -2.2240    0.0000 C   0  0  0  0  0  0  0  0  0
  1  2  1  0  0  0  0
  1  3  1  0  0  0  0
  3  4  4  0  0  0  0
  3  8  4  0  0  0  0
  4  5  4  0  0  0  0
  5  6  4  0  0  0  0
  6  7  4  0  0  0  0
  7  8  4  0  0  0  0
  8  9  1  0  0  0  0
  9 10  1  0  0  0  0
  9 14  1  0  0  0  0
 10 11  1  0  0  0  0
 11 12  1  0  0  0  0
 12 13  1  0  0  0  0
 12 15  1  0  0  0  0
 13 14  1  0  0  0  0
 15 16  1  0  0  0  0
 16 17  1  0  0  0  0
 17 18  1  0  0  0  0
 18 19  1  0  0  0  0
 19 20  1  0  0  0  0
 20 21  2  0  0  0  0
 20 22  1  0  0  0  0
 22 23  4  0  0  0  0
 22 26  4  0  0  0  0
 23 24  4  0  0  0  0
 24 25  4  0  0  0  0
 24 30  4  0  0  0  0
 25 26  4  0  0  0  0
 25 27  4  0  0  0  0
 27 28  4  0  0  0  0
 28 29  4  0  0  0  0
 29 30  4  0  0  0  0
M  END
>  <Name_Molregno>
234375

>  <DOPAMINE D2>
6.61

>  <DOPAMINE D3>
7.74

>  <DOPAMINE D4>
7.49

$$$$
234449
  Marvin  02231216192D 0   1.00000     0.00000     0

 31 34  0  0  0  0  0  0  0  0999 V2000
   -8.1339   -1.3113    0.0000 O   0  0  0  0  0  0  0  0  0
   -8.1339   -2.1363    0.0000 C   0  0  0  0  0  0  0  0  0
   -8.8484   -0.8988    0.0000 C   0  0  0  0  0  0  0  0  0
   -9.5629   -1.3113    0.0000 C   0  0  0  0  0  0  0  0  0
  -10.2773   -0.8988    0.0000 C   0  0  0  0  0  0  0  0  0
  -10.2773   -0.0738    0.0000 C   0  0  0  0  0  0  0  0  0
   -9.5629    0.3387    0.0000 C   0  0  0  0  0  0  0  0  0
   -8.8484   -0.0738    0.0000 C   0  0  0  0  0  0  0  0  0
   -8.1339    0.3387    0.0000 N   0  0  0  0  0  0  0  0  0
   -8.1339    1.1637    0.0000 C   0  0  0  0  0  0  0  0  0
   -7.4194    1.5762    0.0000 C   0  0  0  0  0  0  0  0  0
   -6.7050    1.1637    0.0000 N   0  0  0  0  0  0  0  0  0
   -6.7050    0.3387    0.0000 C   0  0  0  0  0  0  0  0  0
   -7.4194   -0.0738    0.0000 C   0  0  0  0  0  0  0  0  0
   -5.9905    1.5762    0.0000 C   0  0  0  0  0  0  0  0  0
   -5.2760    1.1637    0.0000 C   0  0  0  0  0  0  0  0  0
   -4.5616    1.5762    0.0000 C   0  0  0  0  0  0  0  0  0
   -3.8471    1.1637    0.0000 C   0  0  0  0  0  0  0  0  0
   -3.1326    1.5762    0.0000 C   0  0  0  0  0  0  0  0  0
   -2.4181    1.1637    0.0000 N   0  0  0  0  0  0  0  0  0
   -1.7037    1.5762    0.0000 C   0  0  0  0  0  0  0  0  0
   -1.7037    2.4012    0.0000 O   0  0  0  0  0  0  0  0  0
   -0.9892    1.1637    0.0000 C   0  0  0  0  0  0  0  0  0
   -0.9030    0.3432    0.0000 N   0  0  0  0  0  0  0  0  0
   -0.0960    0.1717    0.0000 N   0  0  0  0  0  0  0  0  0
    0.3165    0.8862    0.0000 C   0  0  0  0  0  0  0  0  0
   -0.2355    1.4993    0.0000 C   0  0  0  0  0  0  0  0  0
    1.1415    0.8862    0.0000 C   0  0  0  0  0  0  0  0  0
    1.5540    0.1717    0.0000 C   0  0  0  0  0  0  0  0  0
    1.1415   -0.5428    0.0000 C   0  0  0  0  0  0  0  0  0
    0.3165   -0.5428    0.0000 C   0  0  0  0  0  0  0  0  0
  1  2  1  0  0  0  0
  1  3  1  0  0  0  0
  3  4  4  0  0  0  0
  3  8  4  0  0  0  0
  4  5  4  0  0  0  0
  5  6  4  0  0  0  0
  6  7  4  0  0  0  0
  7  8  4  0  0  0  0
  8  9  1  0  0  0  0
  9 10  1  0  0  0  0
  9 14  1  0  0  0  0
 10 11  1  0  0  0  0
 11 12  1  0  0  0  0
 12 13  1  0  0  0  0
 12 15  1  0  0  0  0
 13 14  1  0  0  0  0
 15 16  1  0  0  0  0
 16 17  1  0  0  0  0
 17 18  1  0  0  0  0
 18 19  1  0  0  0  0
 19 20  1  0  0  0  0
 20 21  1  0  0  0  0
 21 22  2  0  0  0  0
 21 23  1  0  0  0  0
 23 24  4  0  0  0  0
 23 27  4  0  0  0  0
 24 25  4  0  0  0  0
 25 26  4  0  0  0  0
 25 31  4  0  0  0  0
 26 27  4  0  0  0  0
 26 28  4  0  0  0  0
 28 29  4  0  0  0  0
 29 30  4  0  0  0  0
 30 31  4  0  0  0  0
M  END
>  <Name_Molregno>
234449

>  <DOPAMINE D2>
7.15

>  <DOPAMINE D3>
7.29

>  <DOPAMINE D4>
7.11

$$$$
234538
  Marvin  02231216192D 0   1.00000     0.00000     0

 28 31  0  0  0  0  0  0  0  0999 V2000
   -6.8979   -1.8706    0.0000 O   0  0  0  0  0  0  0  0  0
   -7.3104   -2.5851    0.0000 C   0  0  0  0  0  0  0  0  0
   -7.3104   -1.1561    0.0000 C   0  0  0  0  0  0  0  0  0
   -8.1354   -1.1561    0.0000 C   0  0  0  0  0  0  0  0  0
   -8.5479   -0.4417    0.0000 C   0  0  0  0  0  0  0  0  0
   -8.1354    0.2728    0.0000 C   0  0  0  0  0  0  0  0  0
   -7.3104    0.2728    0.0000 C   0  0  0  0  0  0  0  0  0
   -6.8979   -0.4417    0.0000 C   0  0  0  0  0  0  0  0  0
   -6.0729   -0.4417    0.0000 N   0  0  0  0  0  0  0  0  0
   -5.6604    0.2728    0.0000 C   0  0  0  0  0  0  0  0  0
   -4.8354    0.2728    0.0000 C   0  0  0  0  0  0  0  0  0
   -4.4229   -0.4417    0.0000 N   0  0  0  0  0  0  0  0  0
   -4.8354   -1.1561    0.0000 C   0  0  0  0  0  0  0  0  0
   -5.6604   -1.1561    0.0000 C   0  0  0  0  0  0  0  0  0
   -3.5979   -0.4417    0.0000 C   0  0  0  0  0  0  0  0  0
   -3.1854    0.2728    0.0000 C   0  0  0  0  0  0  0  0  0
   -2.3604    0.2728    0.0000 N   0  0  0  0  0  0  0  0  0
   -1.9479    0.9873    0.0000 C   0  0  0  0  0  0  0  0  0
   -2.3604    1.7017    0.0000 O   0  0  0  0  0  0  0  0  0
   -1.1229    0.9873    0.0000 C   0  0  0  0  0  0  0  0  0
   -0.6379    0.3198    0.0000 N   0  0  0  0  0  0  0  0  0
    0.1467    0.5748    0.0000 N   0  0  0  0  0  0  0  0  0
    0.1467    1.3998    0.0000 C   0  0  0  0  0  0  0  0  0
   -0.6379    1.6547    0.0000 C   0  0  0  0  0  0  0  0  0
    0.8612    1.8123    0.0000 C   0  0  0  0  0  0  0  0  0
    1.5756    1.3998    0.0000 C   0  0  0  0  0  0  0  0  0
    1.5756    0.5748    0.0000 C   0  0  0  0  0  0  0  0  0
    0.8612    0.1623    0.0000 C   0  0  0  0  0  0  0  0  0
  1  2  1  0  0  0  0
  1  3  1  0  0  0  0
  3  4  4  0  0  0  0
  3  8  4  0  0  0  0
  4  5  4  0  0  0  0
  5  6  4  0  0  0  0
  6  7  4  0  0  0  0
  7  8  4  0  0  0  0
  8  9  1  0  0  0  0
  9 10  1  0  0  0  0
  9 14  1  0  0  0  0
 10 11  1  0  0  0  0
 11 12  1  0  0  0  0
 12 13  1  0  0  0  0
 12 15  1  0  0  0  0
 13 14  1  0  0  0  0
 15 16  1  0  0  0  0
 16 17  1  0  0  0  0
 17 18  1  0  0  0  0
 18 19  2  0  0  0  0
 18 20  1  0  0  0  0
 20 21  4  0  0  0  0
 20 24  4  0  0  0  0
 21 22  4  0  0  0  0
 22 23  4  0  0  0  0
 22 28  4  0  0  0  0
 23 24  4  0  0  0  0
 23 25  4  0  0  0  0
 25 26  4  0  0  0  0
 26 27  4  0  0  0  0
 27 28  4  0  0  0  0
M  END
>  <Name_Molregno>
234538

>  <DOPAMINE D2>
6.28

>  <DOPAMINE D3>
6.6

>  <DOPAMINE D4>
7.52

$$$$
234539
  Marvin  02231216192D 0   1.00000     0.00000     0

 29 32  0  0  0  0  0  0  0  0999 V2000
   -6.7961   -1.1716    0.0000 O   0  0  0  0  0  0  0  0  0
   -6.7961   -1.9966    0.0000 C   0  0  0  0  0  0  0  0  0
   -7.5106   -0.7591    0.0000 C   0  0  0  0  0  0  0  0  0
   -8.2250   -1.1716    0.0000 C   0  0  0  0  0  0  0  0  0
   -8.9395   -0.7591    0.0000 C   0  0  0  0  0  0  0  0  0
   -8.9395    0.0659    0.0000 C   0  0  0  0  0  0  0  0  0
   -8.2250    0.4784    0.0000 C   0  0  0  0  0  0  0  0  0
   -7.5106    0.0659    0.0000 C   0  0  0  0  0  0  0  0  0
   -6.7961    0.4784    0.0000 N   0  0  0  0  0  0  0  0  0
   -6.7961    1.3034    0.0000 C   0  0  0  0  0  0  0  0  0
   -6.0816    1.7159    0.0000 C   0  0  0  0  0  0  0  0  0
   -5.3672    1.3034    0.0000 N   0  0  0  0  0  0  0  0  0
   -5.3672    0.4784    0.0000 C   0  0  0  0  0  0  0  0  0
   -6.0816    0.0659    0.0000 C   0  0  0  0  0  0  0  0  0
   -4.6527    1.7159    0.0000 C   0  0  0  0  0  0  0  0  0
   -3.9382    1.3034    0.0000 C   0  0  0  0  0  0  0  0  0
   -3.2237    1.7159    0.0000 C   0  0  0  0  0  0  0  0  0
   -2.5093    1.3034    0.0000 N   0  0  0  0  0  0  0  0  0
   -1.7948    1.7159    0.0000 C   0  0  0  0  0  0  0  0  0
   -1.7948    2.5409    0.0000 O   0  0  0  0  0  0  0  0  0
   -1.0803    1.3034    0.0000 C   0  0  0  0  0  0  0  0  0
   -0.9941    0.4830    0.0000 N   0  0  0  0  0  0  0  0  0
   -0.1871    0.3114    0.0000 N   0  0  0  0  0  0  0  0  0
    0.2254    1.0259    0.0000 C   0  0  0  0  0  0  0  0  0
   -0.3267    1.6390    0.0000 C   0  0  0  0  0  0  0  0  0
    1.0504    1.0259    0.0000 C   0  0  0  0  0  0  0  0  0
    1.4629    0.3114    0.0000 C   0  0  0  0  0  0  0  0  0
    1.0504   -0.4030    0.0000 C   0  0  0  0  0  0  0  0  0
    0.2254   -0.4030    0.0000 C   0  0  0  0  0  0  0  0  0
  1  2  1  0  0  0  0
  1  3  1  0  0  0  0
  3  4  4  0  0  0  0
  3  8  4  0  0  0  0
  4  5  4  0  0  0  0
  5  6  4  0  0  0  0
  6  7  4  0  0  0  0
  7  8  4  0  0  0  0
  8  9  1  0  0  0  0
  9 10  1  0  0  0  0
  9 14  1  0  0  0  0
 10 11  1  0  0  0  0
 11 12  1  0  0  0  0
 12 13  1  0  0  0  0
 12 15  1  0  0  0  0
 13 14  1  0  0  0  0
 15 16  1  0  0  0  0
 16 17  1  0  0  0  0
 17 18  1  0  0  0  0
 18 19  1  0  0  0  0
 19 20  2  0  0  0  0
 19 21  1  0  0  0  0
 21 22  4  0  0  0  0
 21 25  4  0  0  0  0
 22 23  4  0  0  0  0
 23 24  4  0  0  0  0
 23 29  4  0  0  0  0
 24 25  4  0  0  0  0
 24 26  4  0  0  0  0
 26 27  4  0  0  0  0
 27 28  4  0  0  0  0
 28 29  4  0  0  0  0
M  END
>  <Name_Molregno>
234539

>  <DOPAMINE D2>
6.08

>  <DOPAMINE D3>
6.19

>  <DOPAMINE D4>
7.39

$$$$
234543
  Marvin  02231216192D 0   1.00000     0.00000     0

 28 31  0  0  0  0  0  0  0  0999 V2000
   -7.0290   -0.7546    0.0000 O   0  0  0  0  0  0  0  0  0
   -7.8360   -0.9261    0.0000 C   0  0  0  0  0  0  0  0  0
   -6.7740    0.0300    0.0000 C   0  0  0  0  0  0  0  0  0
   -7.3261    0.6431    0.0000 C   0  0  0  0  0  0  0  0  0
   -7.0711    1.4278    0.0000 C   0  0  0  0  0  0  0  0  0
   -6.2642    1.5993    0.0000 C   0  0  0  0  0  0  0  0  0
   -5.7121    0.9862    0.0000 C   0  0  0  0  0  0  0  0  0
   -5.9671    0.2016    0.0000 C   0  0  0  0  0  0  0  0  0
   -5.4150   -0.4115    0.0000 N   0  0  0  0  0  0  0  0  0
   -4.6081   -0.2400    0.0000 C   0  0  0  0  0  0  0  0  0
   -4.0560   -0.8531    0.0000 C   0  0  0  0  0  0  0  0  0
   -4.3110   -1.6377    0.0000 N   0  0  0  0  0  0  0  0  0
   -5.1179   -1.8092    0.0000 C   0  0  0  0  0  0  0  0  0
   -5.6700   -1.1962    0.0000 C   0  0  0  0  0  0  0  0  0
   -3.7589   -2.2508    0.0000 C   0  0  0  0  0  0  0  0  0
   -2.9520   -2.0793    0.0000 C   0  0  0  0  0  0  0  0  0
   -2.6970   -1.2947    0.0000 N   0  0  0  0  0  0  0  0  0
   -1.8901   -1.1231    0.0000 C   0  0  0  0  0  0  0  0  0
   -1.3380   -1.7362    0.0000 O   0  0  0  0  0  0  0  0  0
   -1.6351   -0.3385    0.0000 C   0  0  0  0  0  0  0  0  0
   -0.8505   -0.0836    0.0000 C   0  0  0  0  0  0  0  0  0
   -0.8505    0.7414    0.0000 N   0  0  0  0  0  0  0  0  0
   -1.6351    0.9964    0.0000 N   0  0  0  0  0  0  0  0  0
   -2.1200    0.3289    0.0000 C   0  0  0  0  0  0  0  0  0
   -0.1360    1.1539    0.0000 C   0  0  0  0  0  0  0  0  0
    0.5784    0.7414    0.0000 C   0  0  0  0  0  0  0  0  0
    0.5784   -0.0836    0.0000 C   0  0  0  0  0  0  0  0  0
   -0.1360   -0.4961    0.0000 C   0  0  0  0  0  0  0  0  0
  1  2  1  0  0  0  0
  1  3  1  0  0  0  0
  3  4  4  0  0  0  0
  3  8  4  0  0  0  0
  4  5  4  0  0  0  0
  5  6  4  0  0  0  0
  6  7  4  0  0  0  0
  7  8  4  0  0  0  0
  8  9  1  0  0  0  0
  9 10  1  0  0  0  0
  9 14  1  0  0  0  0
 10 11  1  0  0  0  0
 11 12  1  0  0  0  0
 12 13  1  0  0  0  0
 12 15  1  0  0  0  0
 13 14  1  0  0  0  0
 15 16  1  0  0  0  0
 16 17  1  0  0  0  0
 17 18  1  0  0  0  0
 18 19  2  0  0  0  0
 18 20  1  0  0  0  0
 20 21  4  0  0  0  0
 20 24  4  0  0  0  0
 21 22  4  0  0  0  0
 21 28  4  0  0  0  0
 22 23  4  0  0  0  0
 22 25  4  0  0  0  0
 23 24  4  0  0  0  0
 25 26  4  0  0  0  0
 26 27  4  0  0  0  0
 27 28  4  0  0  0  0
M  END
>  <Name_Molregno>
234543

>  <DOPAMINE D2>
6.54

>  <DOPAMINE D3>
6.44

>  <DOPAMINE D4>
9.17

$$$$
234848
  Marvin  02231216192D 0   1.00000     0.00000     0

 30 33  0  0  0  0  0  0  0  0999 V2000
   -8.6284   -0.5190    0.0000 O   0  0  0  0  0  0  0  0  0
   -9.3429   -0.9315    0.0000 C   0  0  0  0  0  0  0  0  0
   -8.6284    0.3060    0.0000 C   0  0  0  0  0  0  0  0  0
   -9.3429    0.7185    0.0000 C   0  0  0  0  0  0  0  0  0
   -9.3429    1.5435    0.0000 C   0  0  0  0  0  0  0  0  0
   -8.6284    1.9560    0.0000 C   0  0  0  0  0  0  0  0  0
   -7.9139    1.5435    0.0000 C   0  0  0  0  0  0  0  0  0
   -7.9139    0.7185    0.0000 C   0  0  0  0  0  0  0  0  0
   -7.1995    0.3060    0.0000 N   0  0  0  0  0  0  0  0  0
   -6.4850    0.7185    0.0000 C   0  0  0  0  0  0  0  0  0
   -5.7705    0.3060    0.0000 C   0  0  0  0  0  0  0  0  0
   -5.7705   -0.5190    0.0000 N   0  0  0  0  0  0  0  0  0
   -6.4850   -0.9315    0.0000 C   0  0  0  0  0  0  0  0  0
   -7.1995   -0.5190    0.0000 C   0  0  0  0  0  0  0  0  0
   -5.0561   -0.9315    0.0000 C   0  0  0  0  0  0  0  0  0
   -4.3416   -0.5190    0.0000 C   0  0  0  0  0  0  0  0  0
   -3.6271   -0.9315    0.0000 C   0  0  0  0  0  0  0  0  0
   -2.9126   -0.5190    0.0000 C   0  0  0  0  0  0  0  0  0
   -2.1982   -0.9315    0.0000 N   0  0  0  0  0  0  0  0  0
   -1.4837   -0.5190    0.0000 C   0  0  0  0  0  0  0  0  0
   -1.4837    0.3060    0.0000 O   0  0  0  0  0  0  0  0  0
   -0.7692   -0.9315    0.0000 C   0  0  0  0  0  0  0  0  0
   -0.0548   -0.5190    0.0000 C   0  0  0  0  0  0  0  0  0
    0.6597   -0.9315    0.0000 N   0  0  0  0  0  0  0  0  0
    1.2728   -0.3794    0.0000 N   0  0  0  0  0  0  0  0  0
    0.9372    0.3742    0.0000 C   0  0  0  0  0  0  0  0  0
    0.1168    0.2880    0.0000 C   0  0  0  0  0  0  0  0  0
    0.6597   -1.7565    0.0000 C   0  0  0  0  0  0  0  0  0
   -0.0548   -2.1690    0.0000 C   0  0  0  0  0  0  0  0  0
   -0.7692   -1.7565    0.0000 C   0  0  0  0  0  0  0  0  0
  1  2  1  0  0  0  0
  1  3  1  0  0  0  0
  3  4  4  0  0  0  0
  3  8  4  0  0  0  0
  4  5  4  0  0  0  0
  5  6  4  0  0  0  0
  6  7  4  0  0  0  0
  7  8  4  0  0  0  0
  8  9  1  0  0  0  0
  9 10  1  0  0  0  0
  9 14  1  0  0  0  0
 10 11  1  0  0  0  0
 11 12  1  0  0  0  0
 12 13  1  0  0  0  0
 12 15  1  0  0  0  0
 13 14  1  0  0  0  0
 15 16  1  0  0  0  0
 16 17  1  0  0  0  0
 17 18  1  0  0  0  0
 18 19  1  0  0  0  0
 19 20  1  0  0  0  0
 20 21  2  0  0  0  0
 20 22  1  0  0  0  0
 22 23  4  0  0  0  0
 22 30  4  0  0  0  0
 23 24  4  0  0  0  0
 23 27  4  0  0  0  0
 24 25  4  0  0  0  0
 24 28  4  0  0  0  0
 25 26  4  0  0  0  0
 26 27  4  0  0  0  0
 28 29  4  0  0  0  0
 29 30  4  0  0  0  0
M  END
>  <Name_Molregno>
234848

>  <DOPAMINE D2>
6.57

>  <DOPAMINE D3>
7.7

>  <DOPAMINE D4>
7.06

$$$$
234867
  Marvin  02231216192D 0   1.00000     0.00000     0

 30 33  0  0  0  0  0  0  0  0999 V2000
   -0.1145    0.0206    0.0000 Cl  0  0  0  0  0  0  0  0  0
   -0.1145   -0.8044    0.0000 C   0  0  0  0  0  0  0  0  0
    0.6000   -1.2169    0.0000 C   0  0  0  0  0  0  0  0  0
    1.3144   -0.8044    0.0000 N   0  0  0  0  0  0  0  0  0
    1.3144    0.0206    0.0000 C   0  0  0  0  0  0  0  0  0
    2.0289    0.4331    0.0000 C   0  0  0  0  0  0  0  0  0
    2.7434    0.0206    0.0000 N   0  0  0  0  0  0  0  0  0
    2.7434   -0.8044    0.0000 C   0  0  0  0  0  0  0  0  0
    2.0289   -1.2169    0.0000 C   0  0  0  0  0  0  0  0  0
    3.4579    0.4331    0.0000 C   0  0  0  0  0  0  0  0  0
    4.1723    0.0206    0.0000 C   0  0  0  0  0  0  0  0  0
    4.8868    0.4331    0.0000 C   0  0  0  0  0  0  0  0  0
    5.6013    0.0206    0.0000 C   0  0  0  0  0  0  0  0  0
    6.3157    0.4331    0.0000 N   0  0  0  0  0  0  0  0  0
    7.0302    0.0206    0.0000 C   0  0  0  0  0  0  0  0  0
    7.0302   -0.8044    0.0000 O   0  0  0  0  0  0  0  0  0
    7.7447    0.4331    0.0000 C   0  0  0  0  0  0  0  0  0
    8.4984    0.0976    0.0000 O   0  0  0  0  0  0  0  0  0
    9.0504    0.7107    0.0000 C   0  0  0  0  0  0  0  0  0
    8.6379    1.4251    0.0000 C   0  0  0  0  0  0  0  0  0
    7.8309    1.2536    0.0000 C   0  0  0  0  0  0  0  0  0
    9.0504    2.1396    0.0000 C   0  0  0  0  0  0  0  0  0
    9.8754    2.1396    0.0000 C   0  0  0  0  0  0  0  0  0
   10.2879    1.4251    0.0000 C   0  0  0  0  0  0  0  0  0
    9.8754    0.7107    0.0000 C   0  0  0  0  0  0  0  0  0
    0.6000   -2.0419    0.0000 C   0  0  0  0  0  0  0  0  0
   -0.1145   -2.4544    0.0000 C   0  0  0  0  0  0  0  0  0
   -0.8290   -2.0419    0.0000 C   0  0  0  0  0  0  0  0  0
   -0.8290   -1.2169    0.0000 C   0  0  0  0  0  0  0  0  0
   -1.5434   -0.8044    0.0000 Cl  0  0  0  0  0  0  0  0  0
  1  2  1  0  0  0  0
  2  3  4  0  0  0  0
  2 29  4  0  0  0  0
  3  4  1  0  0  0  0
  3 26  4  0  0  0  0
  4  5  1  0  0  0  0
  4  9  1  0  0  0  0
  5  6  1  0  0  0  0
  6  7  1  0  0  0  0
  7  8  1  0  0  0  0
  7 10  1  0  0  0  0
  8  9  1  0  0  0  0
 10 11  1  0  0  0  0
 11 12  1  0  0  0  0
 12 13  1  0  0  0  0
 13 14  1  0  0  0  0
 14 15  1  0  0  0  0
 15 16  2  0  0  0  0
 15 17  1  0  0  0  0
 17 18  4  0  0  0  0
 17 21  4  0  0  0  0
 18 19  4  0  0  0  0
 19 20  4  0  0  0  0
 19 25  4  0  0  0  0
 20 21  4  0  0  0  0
 20 22  4  0  0  0  0
 22 23  4  0  0  0  0
 23 24  4  0  0  0  0
 24 25  4  0  0  0  0
 26 27  4  0  0  0  0
 27 28  4  0  0  0  0
 28 29  4  0  0  0  0
 29 30  1  0  0  0  0
M  END
>  <Name_Molregno>
234867

>  <DOPAMINE D2>
7.03

>  <DOPAMINE D3>
8.91

>  <DOPAMINE D4>
6.29

$$$$
234869
  Marvin  02231216192D 0   1.00000     0.00000     0

 30 33  0  0  0  0  0  0  0  0999 V2000
   -8.6284   -0.5190    0.0000 O   0  0  0  0  0  0  0  0  0
   -9.3429   -0.9315    0.0000 C   0  0  0  0  0  0  0  0  0
   -8.6284    0.3060    0.0000 C   0  0  0  0  0  0  0  0  0
   -9.3429    0.7185    0.0000 C   0  0  0  0  0  0  0  0  0
   -9.3429    1.5435    0.0000 C   0  0  0  0  0  0  0  0  0
   -8.6284    1.9560    0.0000 C   0  0  0  0  0  0  0  0  0
   -7.9139    1.5435    0.0000 C   0  0  0  0  0  0  0  0  0
   -7.9139    0.7185    0.0000 C   0  0  0  0  0  0  0  0  0
   -7.1995    0.3060    0.0000 N   0  0  0  0  0  0  0  0  0
   -6.4850    0.7185    0.0000 C   0  0  0  0  0  0  0  0  0
   -5.7705    0.3060    0.0000 C   0  0  0  0  0  0  0  0  0
   -5.7705   -0.5190    0.0000 N   0  0  0  0  0  0  0  0  0
   -6.4850   -0.9315    0.0000 C   0  0  0  0  0  0  0  0  0
   -7.1995   -0.5190    0.0000 C   0  0  0  0  0  0  0  0  0
   -5.0561   -0.9315    0.0000 C   0  0  0  0  0  0  0  0  0
   -4.3416   -0.5190    0.0000 C   0  0  0  0  0  0  0  0  0
   -3.6271   -0.9315    0.0000 C   0  0  0  0  0  0  0  0  0
   -2.9126   -0.5190    0.0000 C   0  0  0  0  0  0  0  0  0
   -2.1982   -0.9315    0.0000 N   0  0  0  0  0  0  0  0  0
   -1.4837   -0.5190    0.0000 C   0  0  0  0  0  0  0  0  0
   -1.4837    0.3060    0.0000 O   0  0  0  0  0  0  0  0  0
   -0.7692   -0.9315    0.0000 C   0  0  0  0  0  0  0  0  0
   -0.0548   -0.5190    0.0000 N   0  0  0  0  0  0  0  0  0
    0.1168    0.2880    0.0000 N   0  0  0  0  0  0  0  0  0
    0.9372    0.3742    0.0000 C   0  0  0  0  0  0  0  0  0
    1.2728   -0.3794    0.0000 C   0  0  0  0  0  0  0  0  0
    0.6597   -0.9315    0.0000 C   0  0  0  0  0  0  0  0  0
    0.6597   -1.7565    0.0000 C   0  0  0  0  0  0  0  0  0
   -0.0548   -2.1690    0.0000 C   0  0  0  0  0  0  0  0  0
   -0.7692   -1.7565    0.0000 C   0  0  0  0  0  0  0  0  0
  1  2  1  0  0  0  0
  1  3  1  0  0  0  0
  3  4  4  0  0  0  0
  3  8  4  0  0  0  0
  4  5  4  0  0  0  0
  5  6  4  0  0  0  0
  6  7  4  0  0  0  0
  7  8  4  0  0  0  0
  8  9  1  0  0  0  0
  9 10  1  0  0  0  0
  9 14  1  0  0  0  0
 10 11  1  0  0  0  0
 11 12  1  0  0  0  0
 12 13  1  0  0  0  0
 12 15  1  0  0  0  0
 13 14  1  0  0  0  0
 15 16  1  0  0  0  0
 16 17  1  0  0  0  0
 17 18  1  0  0  0  0
 18 19  1  0  0  0  0
 19 20  1  0  0  0  0
 20 21  2  0  0  0  0
 20 22  1  0  0  0  0
 22 23  4  0  0  0  0
 22 30  4  0  0  0  0
 23 24  4  0  0  0  0
 23 27  4  0  0  0  0
 24 25  4  0  0  0  0
 25 26  4  0  0  0  0
 26 27  4  0  0  0  0
 27 28  4  0  0  0  0
 28 29  4  0  0  0  0
 29 30  4  0  0  0  0
M  END
>  <Name_Molregno>
234869

>  <DOPAMINE D2>
6.82

>  <DOPAMINE D3>
7.54

>  <DOPAMINE D4>
8.05

$$$$
234931
  Marvin  02231216192D 0   1.00000     0.00000     0

 30 33  0  0  0  0  0  0  0  0999 V2000
   -8.7068   -0.1359    0.0000 O   0  0  0  0  0  0  0  0  0
   -9.4213   -0.5484    0.0000 C   0  0  0  0  0  0  0  0  0
   -8.7068    0.6891    0.0000 C   0  0  0  0  0  0  0  0  0
   -9.4213    1.1016    0.0000 C   0  0  0  0  0  0  0  0  0
   -9.4213    1.9266    0.0000 C   0  0  0  0  0  0  0  0  0
   -8.7068    2.3391    0.0000 C   0  0  0  0  0  0  0  0  0
   -7.9924    1.9266    0.0000 C   0  0  0  0  0  0  0  0  0
   -7.9924    1.1016    0.0000 C   0  0  0  0  0  0  0  0  0
   -7.2779    0.6891    0.0000 N   0  0  0  0  0  0  0  0  0
   -6.5634    1.1016    0.0000 C   0  0  0  0  0  0  0  0  0
   -5.8490    0.6891    0.0000 C   0  0  0  0  0  0  0  0  0
   -5.8490   -0.1359    0.0000 N   0  0  0  0  0  0  0  0  0
   -6.5634   -0.5484    0.0000 C   0  0  0  0  0  0  0  0  0
   -7.2779   -0.1359    0.0000 C   0  0  0  0  0  0  0  0  0
   -5.1345   -0.5484    0.0000 C   0  0  0  0  0  0  0  0  0
   -4.4200   -0.1359    0.0000 C   0  0  0  0  0  0  0  0  0
   -3.7055   -0.5484    0.0000 C   0  0  0  0  0  0  0  0  0
   -2.9911   -0.1359    0.0000 C   0  0  0  0  0  0  0  0  0
   -2.2766   -0.5484    0.0000 N   0  0  0  0  0  0  0  0  0
   -1.5621   -0.1359    0.0000 C   0  0  0  0  0  0  0  0  0
   -1.5621    0.6891    0.0000 O   0  0  0  0  0  0  0  0  0
   -0.8477   -0.5484    0.0000 C   0  0  0  0  0  0  0  0  0
   -0.1332   -0.1359    0.0000 C   0  0  0  0  0  0  0  0  0
    0.5813   -0.5484    0.0000 C   0  0  0  0  0  0  0  0  0
    0.5813   -1.3734    0.0000 N   0  0  0  0  0  0  0  0  0
    1.1944   -1.9254    0.0000 N   0  0  0  0  0  0  0  0  0
    0.8588   -2.6791    0.0000 C   0  0  0  0  0  0  0  0  0
    0.0383   -2.5928    0.0000 C   0  0  0  0  0  0  0  0  0
   -0.1332   -1.7859    0.0000 C   0  0  0  0  0  0  0  0  0
   -0.8477   -1.3734    0.0000 C   0  0  0  0  0  0  0  0  0
  1  2  1  0  0  0  0
  1  3  1  0  0  0  0
  3  4  4  0  0  0  0
  3  8  4  0  0  0  0
  4  5  4  0  0  0  0
  5  6  4  0  0  0  0
  6  7  4  0  0  0  0
  7  8  4  0  0  0  0
  8  9  1  0  0  0  0
  9 10  1  0  0  0  0
  9 14  1  0  0  0  0
 10 11  1  0  0  0  0
 11 12  1  0  0  0  0
 12 13  1  0  0  0  0
 12 15  1  0  0  0  0
 13 14  1  0  0  0  0
 15 16  1  0  0  0  0
 16 17  1  0  0  0  0
 17 18  1  0  0  0  0
 18 19  1  0  0  0  0
 19 20  1  0  0  0  0
 20 21  2  0  0  0  0
 20 22  1  0  0  0  0
 22 23  4  0  0  0  0
 22 30  4  0  0  0  0
 23 24  4  0  0  0  0
 24 25  4  0  0  0  0
 25 26  4  0  0  0  0
 25 29  4  0  0  0  0
 26 27  4  0  0  0  0
 27 28  4  0  0  0  0
 28 29  4  0  0  0  0
 29 30  4  0  0  0  0
M  END
>  <Name_Molregno>
234931

>  <DOPAMINE D2>
6.72

>  <DOPAMINE D3>
8.55

>  <DOPAMINE D4>
7.17

$$$$
235396
  Marvin  02231216192D 0   1.00000     0.00000     0

 30 33  0  0  0  0  0  0  0  0999 V2000
    0.6799    1.4485    0.0000 S   0  0  0  0  0  0  0  0  0
   -0.1271    1.6200    0.0000 C   0  0  0  0  0  0  0  0  0
   -0.5396    0.9055    0.0000 C   0  0  0  0  0  0  0  0  0
    0.0124    0.2924    0.0000 C   0  0  0  0  0  0  0  0  0
    0.7661    0.6280    0.0000 C   0  0  0  0  0  0  0  0  0
    1.4806    0.2155    0.0000 C   0  0  0  0  0  0  0  0  0
    1.4806   -0.6095    0.0000 O   0  0  0  0  0  0  0  0  0
    2.1951    0.6280    0.0000 N   0  0  0  0  0  0  0  0  0
    2.9095    0.2155    0.0000 C   0  0  0  0  0  0  0  0  0
    3.6240    0.6280    0.0000 C   0  0  0  0  0  0  0  0  0
    4.3385    0.2155    0.0000 C   0  0  0  0  0  0  0  0  0
    5.0529    0.6280    0.0000 C   0  0  0  0  0  0  0  0  0
    5.7674    0.2155    0.0000 N   0  0  0  0  0  0  0  0  0
    6.4819    0.6280    0.0000 C   0  0  0  0  0  0  0  0  0
    7.1963    0.2155    0.0000 C   0  0  0  0  0  0  0  0  0
    7.1963   -0.6095    0.0000 N   0  0  0  0  0  0  0  0  0
    6.4819   -1.0220    0.0000 C   0  0  0  0  0  0  0  0  0
    5.7674   -0.6095    0.0000 C   0  0  0  0  0  0  0  0  0
    7.9108   -1.0220    0.0000 C   0  0  0  0  0  0  0  0  0
    8.6253   -0.6095    0.0000 C   0  0  0  0  0  0  0  0  0
    9.3398   -1.0220    0.0000 C   0  0  0  0  0  0  0  0  0
    9.3398   -1.8470    0.0000 C   0  0  0  0  0  0  0  0  0
    8.6253   -2.2595    0.0000 C   0  0  0  0  0  0  0  0  0
    7.9108   -1.8470    0.0000 C   0  0  0  0  0  0  0  0  0
    7.1963   -2.2595    0.0000 O   0  0  0  0  0  0  0  0  0
    7.1963   -3.0845    0.0000 C   0  0  0  0  0  0  0  0  0
   -1.3646    0.9055    0.0000 C   0  0  0  0  0  0  0  0  0
   -1.7771    1.6200    0.0000 C   0  0  0  0  0  0  0  0  0
   -1.3646    2.3344    0.0000 C   0  0  0  0  0  0  0  0  0
   -0.5396    2.3344    0.0000 C   0  0  0  0  0  0  0  0  0
  1  2  4  0  0  0  0
  1  5  4  0  0  0  0
  2  3  4  0  0  0  0
  2 30  4  0  0  0  0
  3  4  4  0  0  0  0
  3 27  4  0  0  0  0
  4  5  4  0  0  0  0
  5  6  1  0  0  0  0
  6  7  2  0  0  0  0
  6  8  1  0  0  0  0
  8  9  1  0  0  0  0
  9 10  1  0  0  0  0
 10 11  1  0  0  0  0
 11 12  1  0  0  0  0
 12 13  1  0  0  0  0
 13 14  1  0  0  0  0
 13 18  1  0  0  0  0
 14 15  1  0  0  0  0
 15 16  1  0  0  0  0
 16 17  1  0  0  0  0
 16 19  1  0  0  0  0
 17 18  1  0  0  0  0
 19 20  4  0  0  0  0
 19 24  4  0  0  0  0
 20 21  4  0  0  0  0
 21 22  4  0  0  0  0
 22 23  4  0  0  0  0
 23 24  4  0  0  0  0
 24 25  1  0  0  0  0
 25 26  1  0  0  0  0
 27 28  4  0  0  0  0
 28 29  4  0  0  0  0
 29 30  4  0  0  0  0
M  END
>  <Name_Molregno>
235396

>  <DOPAMINE D2>
7.06

>  <DOPAMINE D3>
9.66

>  <DOPAMINE D4>
7.17

$$$$
242292
  Marvin  02231216192D 0   1.00000     0.00000     0

 24 27  0  0  0  0  0  0  0  0999 V2000
    2.1494    2.1762    0.0000 N   0  0  0  0  0  0  0  0  0
    2.8168    1.6912    0.0000 C   0  0  0  0  0  0  0  0  0
    2.5619    0.9066    0.0000 C   0  0  0  0  0  0  0  0  0
    1.7369    0.9066    0.0000 C   0  0  0  0  0  0  0  0  0
    1.4819    1.6912    0.0000 C   0  0  0  0  0  0  0  0  0
    3.0468    0.2392    0.0000 C   0  0  0  0  0  0  0  0  0
    2.7112   -0.5145    0.0000 N   0  0  0  0  0  0  0  0  0
    3.1962   -1.1819    0.0000 C   0  0  0  0  0  0  0  0  0
    2.8606   -1.9356    0.0000 C   0  0  0  0  0  0  0  0  0
    2.0401   -2.0218    0.0000 N   0  0  0  0  0  0  0  0  0
    1.5552   -1.3544    0.0000 C   0  0  0  0  0  0  0  0  0
    1.8908   -0.6007    0.0000 C   0  0  0  0  0  0  0  0  0
    1.7046   -2.7755    0.0000 C   0  0  0  0  0  0  0  0  0
    2.1895   -3.4430    0.0000 C   0  0  0  0  0  0  0  0  0
    1.8539   -4.1966    0.0000 C   0  0  0  0  0  0  0  0  0
    1.0335   -4.2829    0.0000 C   0  0  0  0  0  0  0  0  0
    0.5485   -3.6154    0.0000 C   0  0  0  0  0  0  0  0  0
    0.8841   -2.8618    0.0000 C   0  0  0  0  0  0  0  0  0
    2.1494    3.0012    0.0000 C   0  0  0  0  0  0  0  0  0
    1.4349    3.4137    0.0000 C   0  0  0  0  0  0  0  0  0
    1.4349    4.2387    0.0000 C   0  0  0  0  0  0  0  0  0
    2.1494    4.6512    0.0000 C   0  0  0  0  0  0  0  0  0
    2.8639    4.2387    0.0000 C   0  0  0  0  0  0  0  0  0
    2.8639    3.4137    0.0000 C   0  0  0  0  0  0  0  0  0
  1  2  4  0  0  0  0
  1  5  4  0  0  0  0
  1 19  1  0  0  0  0
  2  3  4  0  0  0  0
  3  4  4  0  0  0  0
  3  6  1  0  0  0  0
  4  5  4  0  0  0  0
  6  7  1  0  0  0  0
  7  8  1  0  0  0  0
  7 12  1  0  0  0  0
  8  9  1  0  0  0  0
  9 10  1  0  0  0  0
 10 11  1  0  0  0  0
 10 13  1  0  0  0  0
 11 12  1  0  0  0  0
 13 14  4  0  0  0  0
 13 18  4  0  0  0  0
 14 15  4  0  0  0  0
 15 16  4  0  0  0  0
 16 17  4  0  0  0  0
 17 18  4  0  0  0  0
 19 20  4  0  0  0  0
 19 24  4  0  0  0  0
 20 21  4  0  0  0  0
 21 22  4  0  0  0  0
 22 23  4  0  0  0  0
 23 24  4  0  0  0  0
M  END
>  <Name_Molregno>
242292

>  <DOPAMINE D4>
8.4

$$$$
242605
  Marvin  02231216192D 0   1.00000     0.00000     0

 29 33  0  0  0  0  0  0  0  0999 V2000
   -2.1259    1.3284    0.0000 O   0  0  0  0  0  0  0  0  0
   -2.3808    2.1131    0.0000 C   0  0  0  0  0  0  0  0  0
   -3.1654    2.3680    0.0000 N   0  0  0  0  0  0  0  0  0
   -3.1654    3.1930    0.0000 C   0  0  0  0  0  0  0  0  0
   -2.3808    3.4479    0.0000 N   0  0  0  0  0  0  0  0  0
   -1.8959    2.7805    0.0000 C   0  0  0  0  0  0  0  0  0
   -1.4834    3.4950    0.0000 C   0  0  0  0  0  0  0  0  0
   -0.6584    3.4950    0.0000 C   0  0  0  0  0  0  0  0  0
   -0.2459    2.7805    0.0000 N   0  0  0  0  0  0  0  0  0
   -0.6584    2.0660    0.0000 C   0  0  0  0  0  0  0  0  0
   -1.4834    2.0660    0.0000 C   0  0  0  0  0  0  0  0  0
    0.5791    2.7805    0.0000 C   0  0  0  0  0  0  0  0  0
    0.9916    2.0660    0.0000 C   0  0  0  0  0  0  0  0  0
    1.8121    1.9798    0.0000 C   0  0  0  0  0  0  0  0  0
    1.9836    1.1728    0.0000 C   0  0  0  0  0  0  0  0  0
    1.2692    0.7603    0.0000 N   0  0  0  0  0  0  0  0  0
    0.6561    1.3123    0.0000 C   0  0  0  0  0  0  0  0  0
    1.1829   -0.0602    0.0000 C   0  0  0  0  0  0  0  0  0
    1.8504   -0.5451    0.0000 C   0  0  0  0  0  0  0  0  0
    1.7641   -1.3656    0.0000 C   0  0  0  0  0  0  0  0  0
    1.0105   -1.7011    0.0000 C   0  0  0  0  0  0  0  0  0
    0.3430   -1.2162    0.0000 C   0  0  0  0  0  0  0  0  0
    0.4293   -0.3957    0.0000 C   0  0  0  0  0  0  0  0  0
   -2.1259    4.2326    0.0000 C   0  0  0  0  0  0  0  0  0
   -2.6779    4.8456    0.0000 C   0  0  0  0  0  0  0  0  0
   -2.4230    5.6303    0.0000 C   0  0  0  0  0  0  0  0  0
   -1.6160    5.8018    0.0000 C   0  0  0  0  0  0  0  0  0
   -1.0639    5.1887    0.0000 C   0  0  0  0  0  0  0  0  0
   -1.3189    4.4041    0.0000 C   0  0  0  0  0  0  0  0  0
  1  2  2  0  0  0  0
  2  3  1  0  0  0  0
  2  6  1  0  0  0  0
  3  4  1  0  0  0  0
  4  5  1  0  0  0  0
  5  6  1  0  0  0  0
  5 24  1  0  0  0  0
  6  7  1  0  0  0  0
  6 11  1  0  0  0  0
  7  8  1  0  0  0  0
  8  9  1  0  0  0  0
  9 10  1  0  0  0  0
  9 12  1  0  0  0  0
 10 11  1  0  0  0  0
 12 13  1  0  0  0  0
 13 14  4  0  0  0  0
 13 17  4  0  0  0  0
 14 15  4  0  0  0  0
 15 16  4  0  0  0  0
 16 17  4  0  0  0  0
 16 18  1  0  0  0  0
 18 19  4  0  0  0  0
 18 23  4  0  0  0  0
 19 20  4  0  0  0  0
 20 21  4  0  0  0  0
 21 22  4  0  0  0  0
 22 23  4  0  0  0  0
 24 25  4  0  0  0  0
 24 29  4  0  0  0  0
 25 26  4  0  0  0  0
 26 27  4  0  0  0  0
 27 28  4  0  0  0  0
 28 29  4  0  0  0  0
M  END
>  <Name_Molregno>
242605

>  <DOPAMINE D4>
6.7

$$$$
242694
  Marvin  02231216192D 0   1.00000     0.00000     0

 26 29  0  0  0  0  0  0  0  0999 V2000
    9.1085    0.8370    0.0000 Cl  0  0  0  0  0  0  0  0  0
    8.2960    0.9803    0.0000 C   0  0  0  0  0  0  0  0  0
    7.7657    0.3483    0.0000 C   0  0  0  0  0  0  0  0  0
    6.9532    0.4915    0.0000 C   0  0  0  0  0  0  0  0  0
    6.6711    1.2668    0.0000 C   0  0  0  0  0  0  0  0  0
    7.2014    1.8988    0.0000 C   0  0  0  0  0  0  0  0  0
    8.0138    1.7555    0.0000 C   0  0  0  0  0  0  0  0  0
    5.8586    1.4100    0.0000 C   0  0  0  0  0  0  0  0  0
    6.1408    2.1853    0.0000 O   0  0  0  0  0  0  0  0  0
    5.8586    0.5850    0.0000 C   0  0  0  0  0  0  0  0  0
    5.1441    0.1725    0.0000 C   0  0  0  0  0  0  0  0  0
    4.4297    0.5850    0.0000 N   0  0  0  0  0  0  0  0  0
    4.4297    1.4100    0.0000 C   0  0  0  0  0  0  0  0  0
    5.1441    1.8225    0.0000 C   0  0  0  0  0  0  0  0  0
    3.7152    0.1725    0.0000 C   0  0  0  0  0  0  0  0  0
    3.7152   -0.6525    0.0000 C   0  0  0  0  0  0  0  0  0
    4.3826   -1.1374    0.0000 C   0  0  0  0  0  0  0  0  0
    4.1277   -1.9220    0.0000 C   0  0  0  0  0  0  0  0  0
    3.3027   -1.9220    0.0000 N   0  0  0  0  0  0  0  0  0
    3.0477   -1.1374    0.0000 C   0  0  0  0  0  0  0  0  0
    2.8178   -2.5894    0.0000 C   0  0  0  0  0  0  0  0  0
    3.1533   -3.3431    0.0000 C   0  0  0  0  0  0  0  0  0
    2.6684   -4.0106    0.0000 C   0  0  0  0  0  0  0  0  0
    1.8479   -3.9243    0.0000 C   0  0  0  0  0  0  0  0  0
    1.5124   -3.1706    0.0000 C   0  0  0  0  0  0  0  0  0
    1.9973   -2.5032    0.0000 C   0  0  0  0  0  0  0  0  0
  1  2  1  0  0  0  0
  2  3  4  0  0  0  0
  2  7  4  0  0  0  0
  3  4  4  0  0  0  0
  4  5  4  0  0  0  0
  5  6  4  0  0  0  0
  5  8  1  0  0  0  0
  6  7  4  0  0  0  0
  8  9  1  0  0  0  0
  8 10  1  0  0  0  0
  8 14  1  0  0  0  0
 10 11  1  0  0  0  0
 11 12  1  0  0  0  0
 12 13  1  0  0  0  0
 12 15  1  0  0  0  0
 13 14  1  0  0  0  0
 15 16  1  0  0  0  0
 16 17  4  0  0  0  0
 16 20  4  0  0  0  0
 17 18  4  0  0  0  0
 18 19  4  0  0  0  0
 19 20  4  0  0  0  0
 19 21  1  0  0  0  0
 21 22  4  0  0  0  0
 21 26  4  0  0  0  0
 22 23  4  0  0  0  0
 23 24  4  0  0  0  0
 24 25  4  0  0  0  0
 25 26  4  0  0  0  0
M  END
>  <Name_Molregno>
242694

>  <DOPAMINE D4>
6.49

$$$$
243095
  Marvin  02231216192D 0   1.00000     0.00000     0

 24 27  0  0  0  0  0  0  0  0999 V2000
    2.1494    2.1762    0.0000 N   0  0  0  0  0  0  0  0  0
    2.8168    1.6912    0.0000 C   0  0  0  0  0  0  0  0  0
    2.5619    0.9066    0.0000 C   0  0  0  0  0  0  0  0  0
    1.7369    0.9066    0.0000 C   0  0  0  0  0  0  0  0  0
    1.4819    1.6912    0.0000 C   0  0  0  0  0  0  0  0  0
    3.0468    0.2392    0.0000 C   0  0  0  0  0  0  0  0  0
    2.7112   -0.5145    0.0000 N   0  0  0  0  0  0  0  0  0
    3.1962   -1.1819    0.0000 C   0  0  0  0  0  0  0  0  0
    2.8606   -1.9356    0.0000 C   0  0  0  0  0  0  0  0  0
    2.0401   -2.0218    0.0000 C   0  0  0  0  0  0  0  0  0
    1.5552   -1.3544    0.0000 C   0  0  0  0  0  0  0  0  0
    1.8908   -0.6007    0.0000 C   0  0  0  0  0  0  0  0  0
    1.7046   -2.7755    0.0000 C   0  0  0  0  0  0  0  0  0
    2.1895   -3.4430    0.0000 C   0  0  0  0  0  0  0  0  0
    1.8539   -4.1966    0.0000 C   0  0  0  0  0  0  0  0  0
    1.0335   -4.2829    0.0000 C   0  0  0  0  0  0  0  0  0
    0.5485   -3.6154    0.0000 C   0  0  0  0  0  0  0  0  0
    0.8841   -2.8618    0.0000 C   0  0  0  0  0  0  0  0  0
    2.1494    3.0012    0.0000 C   0  0  0  0  0  0  0  0  0
    1.4349    3.4137    0.0000 C   0  0  0  0  0  0  0  0  0
    1.4349    4.2387    0.0000 C   0  0  0  0  0  0  0  0  0
    2.1494    4.6512    0.0000 C   0  0  0  0  0  0  0  0  0
    2.8639    4.2387    0.0000 C   0  0  0  0  0  0  0  0  0
    2.8639    3.4137    0.0000 C   0  0  0  0  0  0  0  0  0
  1  2  4  0  0  0  0
  1  5  4  0  0  0  0
  1 19  1  0  0  0  0
  2  3  4  0  0  0  0
  3  4  4  0  0  0  0
  3  6  1  0  0  0  0
  4  5  4  0  0  0  0
  6  7  1  0  0  0  0
  7  8  1  0  0  0  0
  7 12  1  0  0  0  0
  8  9  1  0  0  0  0
  9 10  1  0  0  0  0
 10 11  1  0  0  0  0
 10 13  1  0  0  0  0
 11 12  1  0  0  0  0
 13 14  4  0  0  0  0
 13 18  4  0  0  0  0
 14 15  4  0  0  0  0
 15 16  4  0  0  0  0
 16 17  4  0  0  0  0
 17 18  4  0  0  0  0
 19 20  4  0  0  0  0
 19 24  4  0  0  0  0
 20 21  4  0  0  0  0
 21 22  4  0  0  0  0
 22 23  4  0  0  0  0
 23 24  4  0  0  0  0
M  END
>  <Name_Molregno>
243095

>  <DOPAMINE D4>
8.05

$$$$
243099
  Marvin  02231216192D 0   1.00000     0.00000     0

 29 32  0  0  0  0  0  0  0  0999 V2000
    7.4781   -1.9706    0.0000 F   0  0  0  0  0  0  0  0  0
    7.1960   -1.1954    0.0000 C   0  0  0  0  0  0  0  0  0
    7.9712   -0.9132    0.0000 F   0  0  0  0  0  0  0  0  0
    6.4207   -1.4775    0.0000 F   0  0  0  0  0  0  0  0  0
    6.9138   -0.4201    0.0000 C   0  0  0  0  0  0  0  0  0
    6.1013   -0.2769    0.0000 C   0  0  0  0  0  0  0  0  0
    5.8192    0.4984    0.0000 C   0  0  0  0  0  0  0  0  0
    6.3495    1.1304    0.0000 C   0  0  0  0  0  0  0  0  0
    7.1619    0.9871    0.0000 C   0  0  0  0  0  0  0  0  0
    7.4441    0.2119    0.0000 C   0  0  0  0  0  0  0  0  0
    5.0067    0.6416    0.0000 C   0  0  0  0  0  0  0  0  0
    5.2889    1.4169    0.0000 O   0  0  0  0  0  0  0  0  0
    5.0067   -0.1834    0.0000 C   0  0  0  0  0  0  0  0  0
    4.2922   -0.5959    0.0000 C   0  0  0  0  0  0  0  0  0
    3.5778   -0.1834    0.0000 N   0  0  0  0  0  0  0  0  0
    3.5778    0.6416    0.0000 C   0  0  0  0  0  0  0  0  0
    4.2922    1.0541    0.0000 C   0  0  0  0  0  0  0  0  0
    2.8633   -0.5959    0.0000 C   0  0  0  0  0  0  0  0  0
    2.8633   -1.4209    0.0000 C   0  0  0  0  0  0  0  0  0
    3.5307   -1.9058    0.0000 C   0  0  0  0  0  0  0  0  0
    3.2758   -2.6904    0.0000 C   0  0  0  0  0  0  0  0  0
    2.4508   -2.6904    0.0000 N   0  0  0  0  0  0  0  0  0
    2.1959   -1.9058    0.0000 C   0  0  0  0  0  0  0  0  0
    1.9659   -3.3578    0.0000 C   0  0  0  0  0  0  0  0  0
    2.3014   -4.1115    0.0000 C   0  0  0  0  0  0  0  0  0
    1.8165   -4.7790    0.0000 C   0  0  0  0  0  0  0  0  0
    0.9960   -4.6927    0.0000 C   0  0  0  0  0  0  0  0  0
    0.6605   -3.9391    0.0000 C   0  0  0  0  0  0  0  0  0
    1.1454   -3.2716    0.0000 C   0  0  0  0  0  0  0  0  0
  1  2  1  0  0  0  0
  2  3  1  0  0  0  0
  2  4  1  0  0  0  0
  2  5  1  0  0  0  0
  5  6  4  0  0  0  0
  5 10  4  0  0  0  0
  6  7  4  0  0  0  0
  7  8  4  0  0  0  0
  7 11  1  0  0  0  0
  8  9  4  0  0  0  0
  9 10  4  0  0  0  0
 11 12  1  0  0  0  0
 11 13  1  0  0  0  0
 11 17  1  0  0  0  0
 13 14  1  0  0  0  0
 14 15  1  0  0  0  0
 15 16  1  0  0  0  0
 15 18  1  0  0  0  0
 16 17  1  0  0  0  0
 18 19  1  0  0  0  0
 19 20  4  0  0  0  0
 19 23  4  0  0  0  0
 20 21  4  0  0  0  0
 21 22  4  0  0  0  0
 22 23  4  0  0  0  0
 22 24  1  0  0  0  0
 24 25  4  0  0  0  0
 24 29  4  0  0  0  0
 25 26  4  0  0  0  0
 26 27  4  0  0  0  0
 27 28  4  0  0  0  0
 28 29  4  0  0  0  0
M  END
>  <Name_Molregno>
243099

>  <DOPAMINE D4>
6.31

$$$$
243129
  Marvin  02231216192D 0   1.00000     0.00000     0

 24 27  0  0  0  0  0  0  0  0999 V2000
    2.1494    2.1762    0.0000 N   0  0  0  0  0  0  0  0  0
    2.8168    1.6912    0.0000 C   0  0  0  0  0  0  0  0  0
    2.5619    0.9066    0.0000 C   0  0  0  0  0  0  0  0  0
    1.7369    0.9066    0.0000 C   0  0  0  0  0  0  0  0  0
    1.4819    1.6912    0.0000 C   0  0  0  0  0  0  0  0  0
    3.0468    0.2392    0.0000 C   0  0  0  0  0  0  0  0  0
    2.7112   -0.5145    0.0000 N   0  0  0  0  0  0  0  0  0
    3.1962   -1.1819    0.0000 C   0  0  0  0  0  0  0  0  0
    2.8606   -1.9356    0.0000 C   0  0  0  0  0  0  0  0  0
    2.0401   -2.0218    0.0000 C   0  0  0  0  0  0  0  0  0
    1.5552   -1.3544    0.0000 C   0  0  0  0  0  0  0  0  0
    1.8908   -0.6007    0.0000 C   0  0  0  0  0  0  0  0  0
    1.7046   -2.7755    0.0000 C   0  0  0  0  0  0  0  0  0
    2.1895   -3.4430    0.0000 C   0  0  0  0  0  0  0  0  0
    1.8539   -4.1966    0.0000 C   0  0  0  0  0  0  0  0  0
    1.0335   -4.2829    0.0000 C   0  0  0  0  0  0  0  0  0
    0.5485   -3.6154    0.0000 C   0  0  0  0  0  0  0  0  0
    0.8841   -2.8618    0.0000 C   0  0  0  0  0  0  0  0  0
    2.1494    3.0012    0.0000 C   0  0  0  0  0  0  0  0  0
    1.4349    3.4137    0.0000 C   0  0  0  0  0  0  0  0  0
    1.4349    4.2387    0.0000 C   0  0  0  0  0  0  0  0  0
    2.1494    4.6512    0.0000 C   0  0  0  0  0  0  0  0  0
    2.8639    4.2387    0.0000 C   0  0  0  0  0  0  0  0  0
    2.8639    3.4137    0.0000 C   0  0  0  0  0  0  0  0  0
  1  2  4  0  0  0  0
  1  5  4  0  0  0  0
  1 19  1  0  0  0  0
  2  3  4  0  0  0  0
  3  4  4  0  0  0  0
  3  6  1  0  0  0  0
  4  5  4  0  0  0  0
  6  7  1  0  0  0  0
  7  8  1  0  0  0  0
  7 12  1  0  0  0  0
  8  9  1  0  0  0  0
  9 10  1  0  0  0  0
 10 11  2  0  0  0  0
 10 13  1  0  0  0  0
 11 12  1  0  0  0  0
 13 14  4  0  0  0  0
 13 18  4  0  0  0  0
 14 15  4  0  0  0  0
 15 16  4  0  0  0  0
 16 17  4  0  0  0  0
 17 18  4  0  0  0  0
 19 20  4  0  0  0  0
 19 24  4  0  0  0  0
 20 21  4  0  0  0  0
 21 22  4  0  0  0  0
 22 23  4  0  0  0  0
 23 24  4  0  0  0  0
M  END
>  <Name_Molregno>
243129

>  <DOPAMINE D4>
8.4

$$$$
243130
  Marvin  02231216192D 0   1.00000     0.00000     0

 24 27  0  0  0  0  0  0  0  0999 V2000
    5.0273    2.8103    0.0000 N   0  0  0  0  0  0  0  0  0
    5.7417    3.2228    0.0000 C   0  0  0  0  0  0  0  0  0
    6.4562    2.8103    0.0000 C   0  0  0  0  0  0  0  0  0
    6.4562    1.9853    0.0000 C   0  0  0  0  0  0  0  0  0
    5.7417    1.5728    0.0000 C   0  0  0  0  0  0  0  0  0
    5.0273    1.9853    0.0000 C   0  0  0  0  0  0  0  0  0
    4.3128    1.5728    0.0000 N   0  0  0  0  0  0  0  0  0
    4.3128    0.7478    0.0000 C   0  0  0  0  0  0  0  0  0
    3.5983    0.3353    0.0000 C   0  0  0  0  0  0  0  0  0
    2.8838    0.7478    0.0000 N   0  0  0  0  0  0  0  0  0
    2.8838    1.5728    0.0000 C   0  0  0  0  0  0  0  0  0
    3.5983    1.9853    0.0000 C   0  0  0  0  0  0  0  0  0
    2.1694    0.3353    0.0000 C   0  0  0  0  0  0  0  0  0
    2.1694   -0.4897    0.0000 C   0  0  0  0  0  0  0  0  0
    2.8368   -0.9747    0.0000 C   0  0  0  0  0  0  0  0  0
    2.5819   -1.7593    0.0000 C   0  0  0  0  0  0  0  0  0
    1.7569   -1.7593    0.0000 N   0  0  0  0  0  0  0  0  0
    1.5019   -0.9747    0.0000 C   0  0  0  0  0  0  0  0  0
    1.2719   -2.4267    0.0000 C   0  0  0  0  0  0  0  0  0
    1.6075   -3.1804    0.0000 C   0  0  0  0  0  0  0  0  0
    1.1226   -3.8478    0.0000 C   0  0  0  0  0  0  0  0  0
    0.3021   -3.7616    0.0000 C   0  0  0  0  0  0  0  0  0
   -0.0335   -3.0079    0.0000 C   0  0  0  0  0  0  0  0  0
    0.4515   -2.3405    0.0000 C   0  0  0  0  0  0  0  0  0
  1  2  4  0  0  0  0
  1  6  4  0  0  0  0
  2  3  4  0  0  0  0
  3  4  4  0  0  0  0
  4  5  4  0  0  0  0
  5  6  4  0  0  0  0
  6  7  1  0  0  0  0
  7  8  1  0  0  0  0
  7 12  1  0  0  0  0
  8  9  1  0  0  0  0
  9 10  1  0  0  0  0
 10 11  1  0  0  0  0
 10 13  1  0  0  0  0
 11 12  1  0  0  0  0
 13 14  1  0  0  0  0
 14 15  4  0  0  0  0
 14 18  4  0  0  0  0
 15 16  4  0  0  0  0
 16 17  4  0  0  0  0
 17 18  4  0  0  0  0
 17 19  1  0  0  0  0
 19 20  4  0  0  0  0
 19 24  4  0  0  0  0
 20 21  4  0  0  0  0
 21 22  4  0  0  0  0
 22 23  4  0  0  0  0
 23 24  4  0  0  0  0
M  END
>  <Name_Molregno>
243130

>  <DOPAMINE D4>
8.8

$$$$
243589
  Marvin  02231216192D 0   1.00000     0.00000     0

 28 32  0  0  0  0  0  0  0  0999 V2000
    0.4665   -3.5541    0.0000 O   0  0  0  0  0  0  0  0  0
    1.2915   -3.5541    0.0000 C   0  0  0  0  0  0  0  0  0
    1.7764   -4.2215    0.0000 N   0  0  0  0  0  0  0  0  0
    2.5611   -3.9666    0.0000 C   0  0  0  0  0  0  0  0  0
    2.5611   -3.1416    0.0000 C   0  0  0  0  0  0  0  0  0
    1.7764   -2.8866    0.0000 N   0  0  0  0  0  0  0  0  0
    1.5215   -2.1020    0.0000 C   0  0  0  0  0  0  0  0  0
    0.7145   -1.9305    0.0000 C   0  0  0  0  0  0  0  0  0
    0.4596   -1.1458    0.0000 C   0  0  0  0  0  0  0  0  0
    1.0116   -0.5328    0.0000 N   0  0  0  0  0  0  0  0  0
    1.8186   -0.7043    0.0000 C   0  0  0  0  0  0  0  0  0
    2.0735   -1.4889    0.0000 C   0  0  0  0  0  0  0  0  0
    0.7567    0.2519    0.0000 C   0  0  0  0  0  0  0  0  0
    1.3087    0.8650    0.0000 C   0  0  0  0  0  0  0  0  0
    1.1372    1.6719    0.0000 C   0  0  0  0  0  0  0  0  0
    1.8517    2.0844    0.0000 C   0  0  0  0  0  0  0  0  0
    2.4648    1.5324    0.0000 N   0  0  0  0  0  0  0  0  0
    2.1292    0.7787    0.0000 C   0  0  0  0  0  0  0  0  0
    3.2717    1.7039    0.0000 C   0  0  0  0  0  0  0  0  0
    3.5267    2.4886    0.0000 C   0  0  0  0  0  0  0  0  0
    4.3336    2.6601    0.0000 C   0  0  0  0  0  0  0  0  0
    4.8857    2.0470    0.0000 C   0  0  0  0  0  0  0  0  0
    4.6307    1.2624    0.0000 C   0  0  0  0  0  0  0  0  0
    3.8238    1.0908    0.0000 C   0  0  0  0  0  0  0  0  0
    3.2755   -2.7291    0.0000 C   0  0  0  0  0  0  0  0  0
    3.9900   -3.1416    0.0000 C   0  0  0  0  0  0  0  0  0
    3.9900   -3.9666    0.0000 C   0  0  0  0  0  0  0  0  0
    3.2755   -4.3791    0.0000 C   0  0  0  0  0  0  0  0  0
  1  2  1  0  0  0  0
  2  3  4  0  0  0  0
  2  6  4  0  0  0  0
  3  4  4  0  0  0  0
  4  5  4  0  0  0  0
  4 28  4  0  0  0  0
  5  6  4  0  0  0  0
  5 25  4  0  0  0  0
  6  7  1  0  0  0  0
  7  8  1  0  0  0  0
  7 12  1  0  0  0  0
  8  9  1  0  0  0  0
  9 10  1  0  0  0  0
 10 11  1  0  0  0  0
 10 13  1  0  0  0  0
 11 12  1  0  0  0  0
 13 14  1  0  0  0  0
 14 15  4  0  0  0  0
 14 18  4  0  0  0  0
 15 16  4  0  0  0  0
 16 17  4  0  0  0  0
 17 18  4  0  0  0  0
 17 19  1  0  0  0  0
 19 20  4  0  0  0  0
 19 24  4  0  0  0  0
 20 21  4  0  0  0  0
 21 22  4  0  0  0  0
 22 23  4  0  0  0  0
 23 24  4  0  0  0  0
 25 26  4  0  0  0  0
 26 27  4  0  0  0  0
 27 28  4  0  0  0  0
M  END
>  <Name_Molregno>
243589

>  <DOPAMINE D4>
6.19

$$$$
244014
  Marvin  02231216192D 0   1.00000     0.00000     0

 26 29  0  0  0  0  0  0  0  0999 V2000
    6.2838    4.0735    0.0000 Cl  0  0  0  0  0  0  0  0  0
    6.2838    3.2485    0.0000 C   0  0  0  0  0  0  0  0  0
    6.9983    2.8360    0.0000 C   0  0  0  0  0  0  0  0  0
    6.9983    2.0110    0.0000 C   0  0  0  0  0  0  0  0  0
    6.2838    1.5985    0.0000 C   0  0  0  0  0  0  0  0  0
    5.5693    2.0110    0.0000 C   0  0  0  0  0  0  0  0  0
    5.5693    2.8360    0.0000 C   0  0  0  0  0  0  0  0  0
    6.2838    0.7735    0.0000 C   0  0  0  0  0  0  0  0  0
    6.9512    0.2886    0.0000 N   0  0  0  0  0  0  0  0  0
    6.6963   -0.4960    0.0000 N   0  0  0  0  0  0  0  0  0
    5.8713   -0.4960    0.0000 C   0  0  0  0  0  0  0  0  0
    5.6163    0.2886    0.0000 C   0  0  0  0  0  0  0  0  0
    5.3864   -1.1635    0.0000 C   0  0  0  0  0  0  0  0  0
    5.7219   -1.9171    0.0000 C   0  0  0  0  0  0  0  0  0
    5.2370   -2.5846    0.0000 C   0  0  0  0  0  0  0  0  0
    4.4165   -2.4984    0.0000 N   0  0  0  0  0  0  0  0  0
    4.0810   -1.7447    0.0000 C   0  0  0  0  0  0  0  0  0
    4.5659   -1.0772    0.0000 C   0  0  0  0  0  0  0  0  0
    3.9316   -3.1658    0.0000 C   0  0  0  0  0  0  0  0  0
    4.2672   -3.9195    0.0000 C   0  0  0  0  0  0  0  0  0
    3.7822   -4.5869    0.0000 C   0  0  0  0  0  0  0  0  0
    4.1178   -5.3406    0.0000 C   0  0  0  0  0  0  0  0  0
    3.6329   -6.0080    0.0000 C   0  0  0  0  0  0  0  0  0
    2.8124   -5.9218    0.0000 C   0  0  0  0  0  0  0  0  0
    2.4768   -5.1681    0.0000 C   0  0  0  0  0  0  0  0  0
    2.9617   -4.5007    0.0000 C   0  0  0  0  0  0  0  0  0
  1  2  1  0  0  0  0
  2  3  4  0  0  0  0
  2  7  4  0  0  0  0
  3  4  4  0  0  0  0
  4  5  4  0  0  0  0
  5  6  4  0  0  0  0
  5  8  1  0  0  0  0
  6  7  4  0  0  0  0
  8  9  4  0  0  0  0
  8 12  4  0  0  0  0
  9 10  4  0  0  0  0
 10 11  4  0  0  0  0
 11 12  4  0  0  0  0
 11 13  1  0  0  0  0
 13 14  1  0  0  0  0
 13 18  1  0  0  0  0
 14 15  1  0  0  0  0
 15 16  1  0  0  0  0
 16 17  1  0  0  0  0
 16 19  1  0  0  0  0
 17 18  1  0  0  0  0
 19 20  1  0  0  0  0
 20 21  1  0  0  0  0
 21 22  4  0  0  0  0
 21 26  4  0  0  0  0
 22 23  4  0  0  0  0
 23 24  4  0  0  0  0
 24 25  4  0  0  0  0
 25 26  4  0  0  0  0
M  STY  1   1 DAT
M  SAL   1  1  10
M  SDT   1 MRV_IMPLICIT_H                                        
M  SDD   1     0.0000    0.0000    DR    ALL  0       0  
M  SED   1 IMPL_H1
M  END
>  <Name_Molregno>
244014

>  <DOPAMINE D2>
6.28

>  <DOPAMINE D3>
5.4

>  <DOPAMINE D4>
8.26

$$$$
245431
  Marvin  02231216192D 0   1.00000     0.00000     0

 26 27  0  0  1  0  0  0  0  0999 V2000
   -1.4797   -3.8455    0.0000 Cl  0  0  0  0  0  0  0  0  0
   -0.7652   -3.4330    0.0000 C   0  0  0  0  0  0  0  0  0
   -0.7652   -2.6080    0.0000 C   0  0  0  0  0  0  0  0  0
   -0.0507   -2.1955    0.0000 C   0  0  0  0  0  0  0  0  0
    0.6637   -2.6080    0.0000 C   0  0  0  0  0  0  0  0  0
    0.6637   -3.4330    0.0000 C   0  0  0  0  0  0  0  0  0
   -0.0507   -3.8455    0.0000 C   0  0  0  0  0  0  0  0  0
    1.3782   -2.1955    0.0000 C   0  0  0  0  0  0  0  0  0
    1.3782   -1.3705    0.0000 O   0  0  0  0  0  0  0  0  0
    2.0927   -2.6080    0.0000 C   0  0  0  0  0  0  0  0  0
    2.8071   -2.1955    0.0000 C   0  0  0  0  0  0  0  0  0
    3.5216   -2.6080    0.0000 C   0  0  0  0  0  0  0  0  0
    4.2361   -2.1955    0.0000 N   0  0  0  0  0  0  0  0  0
    4.9505   -2.6080    0.0000 C   0  0  0  0  0  0  0  0  0
    5.6650   -2.1955    0.0000 C   0  0  0  0  0  0  0  0  0
    6.3795   -2.6080    0.0000 C   0  0  0  0  0  0  0  0  0
    7.0940   -2.1955    0.0000 C   0  0  0  0  0  0  0  0  0
    7.0940   -1.3705    0.0000 O   0  0  0  0  0  0  0  0  0
    7.8084   -2.6080    0.0000 C   0  0  0  0  0  0  0  0  0
    8.5229   -2.1955    0.0000 C   0  0  0  0  0  0  0  0  0
    9.2374   -2.6080    0.0000 C   0  0  0  0  0  0  0  0  0
    9.2374   -3.4330    0.0000 C   0  0  0  0  0  0  0  0  0
    9.9518   -3.8455    0.0000 F   0  0  0  0  0  0  0  0  0
    8.5229   -3.8455    0.0000 C   0  0  0  0  0  0  0  0  0
    7.8084   -3.4330    0.0000 C   0  0  0  0  0  0  0  0  0
    4.2361   -1.3705    0.0000 C   0  0  0  0  0  0  0  0  0
  1  2  1  0  0  0  0
  2  3  4  0  0  0  0
  2  7  4  0  0  0  0
  3  4  4  0  0  0  0
  4  5  4  0  0  0  0
  5  6  4  0  0  0  0
  5  8  1  0  0  0  0
  6  7  4  0  0  0  0
  8  9  1  0  0  0  0
  8 10  1  0  0  0  0
 10 11  1  0  0  0  0
 11 12  1  0  0  0  0
 12 13  1  0  0  0  0
 13 14  1  0  0  0  0
 13 26  1  0  0  0  0
 14 15  1  0  0  0  0
 15 16  1  0  0  0  0
 16 17  1  0  0  0  0
 17 18  2  0  0  0  0
 17 19  1  0  0  0  0
 19 20  4  0  0  0  0
 19 25  4  0  0  0  0
 20 21  4  0  0  0  0
 21 22  4  0  0  0  0
 22 23  1  0  0  0  0
 22 24  4  0  0  0  0
 24 25  4  0  0  0  0
M  END
>  <Name_Molregno>
245431

>  <DOPAMINE D2>
7.58

>  <DOPAMINE D3>
6.79

>  <DOPAMINE D4>
6.72

$$$$
245432
  Marvin  02231216192D 0   1.00000     0.00000     0

 24 26  0  0  1  0  0  0  0  0999 V2000
   -0.1382    0.2777    0.0000 Cl  0  0  0  0  0  0  0  0  0
    0.6823    0.3639    0.0000 C   0  0  0  0  0  0  0  0  0
    1.0178    1.1176    0.0000 C   0  0  0  0  0  0  0  0  0
    1.8383    1.2039    0.0000 C   0  0  0  0  0  0  0  0  0
    2.3232    0.5364    0.0000 C   0  0  0  0  0  0  0  0  0
    1.9877   -0.2173    0.0000 C   0  0  0  0  0  0  0  0  0
    1.1672   -0.3035    0.0000 C   0  0  0  0  0  0  0  0  0
    3.1437    0.6227    0.0000 C   0  0  0  0  0  0  0  0  0
    3.5562    1.3371    0.0000 C   0  0  0  0  0  0  0  0  0
    4.3632    1.1656    0.0000 C   0  0  0  0  0  0  0  0  0
    4.4494    0.3451    0.0000 N   0  0  0  0  0  0  0  0  0
    3.6957    0.0096    0.0000 C   0  0  0  0  0  0  0  0  0
    5.1639   -0.0674    0.0000 C   0  0  0  0  0  0  0  0  0
    5.8783    0.3451    0.0000 C   0  0  0  0  0  0  0  0  0
    6.5928   -0.0674    0.0000 C   0  0  0  0  0  0  0  0  0
    7.3073    0.3451    0.0000 C   0  0  0  0  0  0  0  0  0
    7.3073    1.1701    0.0000 O   0  0  0  0  0  0  0  0  0
    8.0218   -0.0674    0.0000 C   0  0  0  0  0  0  0  0  0
    8.7362    0.3451    0.0000 C   0  0  0  0  0  0  0  0  0
    9.4507   -0.0674    0.0000 C   0  0  0  0  0  0  0  0  0
    9.4507   -0.8924    0.0000 C   0  0  0  0  0  0  0  0  0
   10.1652   -1.3049    0.0000 F   0  0  0  0  0  0  0  0  0
    8.7362   -1.3049    0.0000 C   0  0  0  0  0  0  0  0  0
    8.0218   -0.8924    0.0000 C   0  0  0  0  0  0  0  0  0
  1  2  1  0  0  0  0
  2  3  4  0  0  0  0
  2  7  4  0  0  0  0
  3  4  4  0  0  0  0
  4  5  4  0  0  0  0
  5  6  4  0  0  0  0
  5  8  1  0  0  0  0
  6  7  4  0  0  0  0
  8  9  1  0  0  0  0
  8 12  1  0  0  0  0
  9 10  1  0  0  0  0
 10 11  1  0  0  0  0
 11 12  1  0  0  0  0
 11 13  1  0  0  0  0
 13 14  1  0  0  0  0
 14 15  1  0  0  0  0
 15 16  1  0  0  0  0
 16 17  2  0  0  0  0
 16 18  1  0  0  0  0
 18 19  4  0  0  0  0
 18 24  4  0  0  0  0
 19 20  4  0  0  0  0
 20 21  4  0  0  0  0
 21 22  1  0  0  0  0
 21 23  4  0  0  0  0
 23 24  4  0  0  0  0
M  END
>  <Name_Molregno>
245432

>  <DOPAMINE D2>
7.81

>  <DOPAMINE D3>
8

>  <DOPAMINE D4>
7.82

$$$$
245433
  Marvin  02231216192D 0   1.00000     0.00000     0

 25 27  0  0  1  0  0  0  0  0999 V2000
    0.3559    2.6179    0.0000 Cl  0  0  0  0  0  0  0  0  0
    1.0234    2.1329    0.0000 C   0  0  0  0  0  0  0  0  0
    1.7770    2.4685    0.0000 C   0  0  0  0  0  0  0  0  0
    2.4445    1.9836    0.0000 C   0  0  0  0  0  0  0  0  0
    2.3582    1.1631    0.0000 C   0  0  0  0  0  0  0  0  0
    1.6046    0.8275    0.0000 C   0  0  0  0  0  0  0  0  0
    0.9371    1.3125    0.0000 C   0  0  0  0  0  0  0  0  0
    3.0257    0.6782    0.0000 C   0  0  0  0  0  0  0  0  0
    2.4736    0.0651    0.0000 O   0  0  0  0  0  0  0  0  0
    3.4382    1.3926    0.0000 C   0  0  0  0  0  0  0  0  0
    4.2451    1.2211    0.0000 C   0  0  0  0  0  0  0  0  0
    4.3314    0.4006    0.0000 N   0  0  0  0  0  0  0  0  0
    3.5777    0.0651    0.0000 C   0  0  0  0  0  0  0  0  0
    5.0459   -0.0119    0.0000 C   0  0  0  0  0  0  0  0  0
    5.7603    0.4006    0.0000 C   0  0  0  0  0  0  0  0  0
    6.4748   -0.0119    0.0000 C   0  0  0  0  0  0  0  0  0
    7.1893    0.4006    0.0000 C   0  0  0  0  0  0  0  0  0
    7.1893    1.2256    0.0000 O   0  0  0  0  0  0  0  0  0
    7.9037   -0.0119    0.0000 C   0  0  0  0  0  0  0  0  0
    8.6182    0.4006    0.0000 C   0  0  0  0  0  0  0  0  0
    9.3327   -0.0119    0.0000 C   0  0  0  0  0  0  0  0  0
    9.3327   -0.8369    0.0000 C   0  0  0  0  0  0  0  0  0
   10.0472   -1.2494    0.0000 F   0  0  0  0  0  0  0  0  0
    8.6182   -1.2494    0.0000 C   0  0  0  0  0  0  0  0  0
    7.9037   -0.8369    0.0000 C   0  0  0  0  0  0  0  0  0
  1  2  1  0  0  0  0
  2  3  4  0  0  0  0
  2  7  4  0  0  0  0
  3  4  4  0  0  0  0
  4  5  4  0  0  0  0
  5  6  4  0  0  0  0
  5  8  1  0  0  0  0
  6  7  4  0  0  0  0
  8  9  1  0  0  0  0
  8 10  1  0  0  0  0
  8 13  1  0  0  0  0
 10 11  1  0  0  0  0
 11 12  1  0  0  0  0
 12 13  1  0  0  0  0
 12 14  1  0  0  0  0
 14 15  1  0  0  0  0
 15 16  1  0  0  0  0
 16 17  1  0  0  0  0
 17 18  2  0  0  0  0
 17 19  1  0  0  0  0
 19 20  4  0  0  0  0
 19 25  4  0  0  0  0
 20 21  4  0  0  0  0
 21 22  4  0  0  0  0
 22 23  1  0  0  0  0
 22 24  4  0  0  0  0
 24 25  4  0  0  0  0
M  END
>  <Name_Molregno>
245433

>  <5-HT1A>
6.1

>  <5-HT2A>
6.87

>  <5-HT2C>
5.67

>  <Alpha-1A>
7.2

>  <Alpha-1B>
7.18

>  <Alpha-2A>
5.44

>  <Alpha-2B>
5.58

>  <Alpha-2C>
7.41

>  <DOPAMINE D2>
7.07

>  <DOPAMINE D3>
6.45

>  <DOPAMINE D4>
7.7

>  <HISTAMINE H1>
6.21

$$$$
245757
  Marvin  02231216192D 0   1.00000     0.00000     0

 27 29  0  0  1  0  0  0  0  0999 V2000
    0.5628    1.9971    0.0000 Cl  0  0  0  0  0  0  0  0  0
    1.1675    1.4360    0.0000 C   0  0  0  0  0  0  0  0  0
    1.9559    1.6791    0.0000 C   0  0  0  0  0  0  0  0  0
    2.5607    1.1180    0.0000 C   0  0  0  0  0  0  0  0  0
    2.3771    0.3137    0.0000 C   0  0  0  0  0  0  0  0  0
    1.5887    0.0705    0.0000 C   0  0  0  0  0  0  0  0  0
    0.9840    0.6316    0.0000 C   0  0  0  0  0  0  0  0  0
    2.9818   -0.2475    0.0000 C   0  0  0  0  0  0  0  0  0
    2.3002   -0.7122    0.0000 O   0  0  0  0  0  0  0  0  0
    3.3943    0.4670    0.0000 C   0  0  0  0  0  0  0  0  0
    4.2101    0.5900    0.0000 C   0  0  0  0  0  0  0  0  0
    4.8149    0.0288    0.0000 C   0  0  0  0  0  0  0  0  0
    4.7532   -0.7939    0.0000 N   0  0  0  0  0  0  0  0  0
    4.0716   -1.2586    0.0000 C   0  0  0  0  0  0  0  0  0
    3.2833   -1.0154    0.0000 C   0  0  0  0  0  0  0  0  0
    5.4677   -1.2064    0.0000 C   0  0  0  0  0  0  0  0  0
    6.1822   -0.7939    0.0000 C   0  0  0  0  0  0  0  0  0
    6.8967   -1.2064    0.0000 C   0  0  0  0  0  0  0  0  0
    7.6111   -0.7939    0.0000 C   0  0  0  0  0  0  0  0  0
    7.6111    0.0311    0.0000 O   0  0  0  0  0  0  0  0  0
    8.3256   -1.2064    0.0000 C   0  0  0  0  0  0  0  0  0
    9.0401   -0.7939    0.0000 C   0  0  0  0  0  0  0  0  0
    9.7545   -1.2064    0.0000 C   0  0  0  0  0  0  0  0  0
    9.7545   -2.0314    0.0000 C   0  0  0  0  0  0  0  0  0
   10.4690   -2.4439    0.0000 F   0  0  0  0  0  0  0  0  0
    9.0401   -2.4439    0.0000 C   0  0  0  0  0  0  0  0  0
    8.3256   -2.0314    0.0000 C   0  0  0  0  0  0  0  0  0
  1  2  1  0  0  0  0
  2  3  4  0  0  0  0
  2  7  4  0  0  0  0
  3  4  4  0  0  0  0
  4  5  4  0  0  0  0
  5  6  4  0  0  0  0
  5  8  1  0  0  0  0
  6  7  4  0  0  0  0
  8  9  1  0  0  0  0
  8 10  1  0  0  0  0
  8 15  1  0  0  0  0
 10 11  1  0  0  0  0
 11 12  1  0  0  0  0
 12 13  1  0  0  0  0
 13 14  1  0  0  0  0
 13 16  1  0  0  0  0
 14 15  1  0  0  0  0
 16 17  1  0  0  0  0
 17 18  1  0  0  0  0
 18 19  1  0  0  0  0
 19 20  2  0  0  0  0
 19 21  1  0  0  0  0
 21 22  4  0  0  0  0
 21 27  4  0  0  0  0
 22 23  4  0  0  0  0
 23 24  4  0  0  0  0
 24 25  1  0  0  0  0
 24 26  4  0  0  0  0
 26 27  4  0  0  0  0
M  END
>  <Name_Molregno>
245757

>  <DOPAMINE D2>
8.96

>  <DOPAMINE D3>
8.07

>  <DOPAMINE D4>
8.09

$$$$
245758
  Marvin  02231216192D 0   1.00000     0.00000     0

 27 29  0  0  1  0  0  0  0  0999 V2000
    0.8884   -2.1849    0.0000 Cl  0  0  0  0  0  0  0  0  0
    1.4405   -1.5718    0.0000 C   0  0  0  0  0  0  0  0  0
    1.1855   -0.7871    0.0000 C   0  0  0  0  0  0  0  0  0
    1.7375   -0.1740    0.0000 C   0  0  0  0  0  0  0  0  0
    2.5445   -0.3456    0.0000 C   0  0  0  0  0  0  0  0  0
    2.7995   -1.1302    0.0000 C   0  0  0  0  0  0  0  0  0
    2.2474   -1.7433    0.0000 C   0  0  0  0  0  0  0  0  0
    3.0966    0.2675    0.0000 C   0  0  0  0  0  0  0  0  0
    3.5091    0.9820    0.0000 C   0  0  0  0  0  0  0  0  0
    4.3160    0.8105    0.0000 C   0  0  0  0  0  0  0  0  0
    4.4023   -0.0100    0.0000 N   0  0  0  0  0  0  0  0  0
    3.6486   -0.3456    0.0000 C   0  0  0  0  0  0  0  0  0
    5.1167   -0.4225    0.0000 C   0  0  0  0  0  0  0  0  0
    5.8312   -0.0100    0.0000 C   0  0  0  0  0  0  0  0  0
    6.5457   -0.4225    0.0000 C   0  0  0  0  0  0  0  0  0
    7.2601   -0.0100    0.0000 C   0  0  0  0  0  0  0  0  0
    7.2601    0.8150    0.0000 O   0  0  0  0  0  0  0  0  0
    7.9746   -0.4225    0.0000 C   0  0  0  0  0  0  0  0  0
    8.6891   -0.0100    0.0000 C   0  0  0  0  0  0  0  0  0
    9.4036   -0.4225    0.0000 C   0  0  0  0  0  0  0  0  0
    9.4036   -1.2475    0.0000 C   0  0  0  0  0  0  0  0  0
   10.1180   -1.6600    0.0000 F   0  0  0  0  0  0  0  0  0
    8.6891   -1.6600    0.0000 C   0  0  0  0  0  0  0  0  0
    7.9746   -1.2475    0.0000 C   0  0  0  0  0  0  0  0  0
    2.4291    0.7524    0.0000 C   0  0  0  0  0  0  0  0  0
    1.6754    0.4169    0.0000 C   0  0  0  0  0  0  0  0  0
    1.0080    0.9018    0.0000 O   0  0  0  0  0  0  0  0  0
  1  2  1  0  0  0  0
  2  3  4  0  0  0  0
  2  7  4  0  0  0  0
  3  4  4  0  0  0  0
  4  5  4  0  0  0  0
  5  6  4  0  0  0  0
  5  8  1  0  0  0  0
  6  7  4  0  0  0  0
  8  9  1  0  0  0  0
  8 12  1  0  0  0  0
  8 25  1  0  0  0  0
  9 10  1  0  0  0  0
 10 11  1  0  0  0  0
 11 12  1  0  0  0  0
 11 13  1  0  0  0  0
 13 14  1  0  0  0  0
 14 15  1  0  0  0  0
 15 16  1  0  0  0  0
 16 17  2  0  0  0  0
 16 18  1  0  0  0  0
 18 19  4  0  0  0  0
 18 24  4  0  0  0  0
 19 20  4  0  0  0  0
 20 21  4  0  0  0  0
 21 22  1  0  0  0  0
 21 23  4  0  0  0  0
 23 24  4  0  0  0  0
 25 26  1  0  0  0  0
 26 27  1  0  0  0  0
M  END
>  <Name_Molregno>
245758

>  <DOPAMINE D2>
7.64

>  <DOPAMINE D3>
7.49

>  <DOPAMINE D4>
6.71

$$$$
245759
  Marvin  02231216192D 0   1.00000     0.00000     0

 26 28  0  0  1  0  0  0  0  0999 V2000
    0.7894   -2.2136    0.0000 Cl  0  0  0  0  0  0  0  0  0
    1.3414   -1.6005    0.0000 C   0  0  0  0  0  0  0  0  0
    1.0864   -0.8159    0.0000 C   0  0  0  0  0  0  0  0  0
    1.6385   -0.2028    0.0000 C   0  0  0  0  0  0  0  0  0
    2.4454   -0.3743    0.0000 C   0  0  0  0  0  0  0  0  0
    2.7004   -1.1589    0.0000 C   0  0  0  0  0  0  0  0  0
    2.1484   -1.7720    0.0000 C   0  0  0  0  0  0  0  0  0
    2.9975    0.2388    0.0000 C   0  0  0  0  0  0  0  0  0
    3.4100    0.9532    0.0000 C   0  0  0  0  0  0  0  0  0
    4.2170    0.7817    0.0000 C   0  0  0  0  0  0  0  0  0
    4.3032   -0.0388    0.0000 N   0  0  0  0  0  0  0  0  0
    3.5495   -0.3743    0.0000 C   0  0  0  0  0  0  0  0  0
    5.0177   -0.4513    0.0000 C   0  0  0  0  0  0  0  0  0
    5.7321   -0.0388    0.0000 C   0  0  0  0  0  0  0  0  0
    6.4466   -0.4513    0.0000 C   0  0  0  0  0  0  0  0  0
    7.1611   -0.0388    0.0000 C   0  0  0  0  0  0  0  0  0
    7.1611    0.7862    0.0000 O   0  0  0  0  0  0  0  0  0
    7.8755   -0.4513    0.0000 C   0  0  0  0  0  0  0  0  0
    8.5900   -0.0388    0.0000 C   0  0  0  0  0  0  0  0  0
    9.3045   -0.4513    0.0000 C   0  0  0  0  0  0  0  0  0
    9.3045   -1.2763    0.0000 C   0  0  0  0  0  0  0  0  0
   10.0190   -1.6888    0.0000 F   0  0  0  0  0  0  0  0  0
    8.5900   -1.6888    0.0000 C   0  0  0  0  0  0  0  0  0
    7.8755   -1.2763    0.0000 C   0  0  0  0  0  0  0  0  0
    2.3300    0.7237    0.0000 C   0  0  0  0  0  0  0  0  0
    2.4163    1.5442    0.0000 O   0  0  0  0  0  0  0  0  0
  1  2  1  0  0  0  0
  2  3  4  0  0  0  0
  2  7  4  0  0  0  0
  3  4  4  0  0  0  0
  4  5  4  0  0  0  0
  5  6  4  0  0  0  0
  5  8  1  0  0  0  0
  6  7  4  0  0  0  0
  8  9  1  0  0  0  0
  8 12  1  0  0  0  0
  8 25  1  0  0  0  0
  9 10  1  0  0  0  0
 10 11  1  0  0  0  0
 11 12  1  0  0  0  0
 11 13  1  0  0  0  0
 13 14  1  0  0  0  0
 14 15  1  0  0  0  0
 15 16  1  0  0  0  0
 16 17  2  0  0  0  0
 16 18  1  0  0  0  0
 18 19  4  0  0  0  0
 18 24  4  0  0  0  0
 19 20  4  0  0  0  0
 20 21  4  0  0  0  0
 21 22  1  0  0  0  0
 21 23  4  0  0  0  0
 23 24  4  0  0  0  0
 25 26  1  0  0  0  0
M  END
>  <Name_Molregno>
245759

>  <DOPAMINE D2>
7.36

>  <DOPAMINE D3>
6.78

>  <DOPAMINE D4>
7.62

$$$$
245760
  Marvin  02231216192D 0   1.00000     0.00000     0

 27 29  0  0  1  0  0  0  0  0999 V2000
   -0.1326   -0.8622    0.0000 Cl  0  0  0  0  0  0  0  0  0
    0.5819   -0.4497    0.0000 C   0  0  0  0  0  0  0  0  0
    0.5819    0.3753    0.0000 C   0  0  0  0  0  0  0  0  0
    1.2964    0.7878    0.0000 C   0  0  0  0  0  0  0  0  0
    2.0108    0.3753    0.0000 C   0  0  0  0  0  0  0  0  0
    2.0108   -0.4497    0.0000 C   0  0  0  0  0  0  0  0  0
    1.2964   -0.8622    0.0000 C   0  0  0  0  0  0  0  0  0
    2.7253    0.7878    0.0000 C   0  0  0  0  0  0  0  0  0
    2.7253    1.6128    0.0000 O   0  0  0  0  0  0  0  0  0
    3.4398    0.3753    0.0000 C   0  0  0  0  0  0  0  0  0
    4.1543    0.7878    0.0000 C   0  0  0  0  0  0  0  0  0
    4.8687    0.3753    0.0000 C   0  0  0  0  0  0  0  0  0
    4.8687   -0.4497    0.0000 N   0  0  0  0  0  0  0  0  0
    4.1543   -0.8622    0.0000 C   0  0  0  0  0  0  0  0  0
    3.4398   -0.4497    0.0000 C   0  0  0  0  0  0  0  0  0
    5.5832   -0.8622    0.0000 C   0  0  0  0  0  0  0  0  0
    6.2977   -0.4497    0.0000 C   0  0  0  0  0  0  0  0  0
    7.0121   -0.8622    0.0000 C   0  0  0  0  0  0  0  0  0
    7.7266   -0.4497    0.0000 C   0  0  0  0  0  0  0  0  0
    7.7266    0.3753    0.0000 O   0  0  0  0  0  0  0  0  0
    8.4411   -0.8622    0.0000 C   0  0  0  0  0  0  0  0  0
    9.1556   -0.4497    0.0000 C   0  0  0  0  0  0  0  0  0
    9.8700   -0.8622    0.0000 C   0  0  0  0  0  0  0  0  0
    9.8700   -1.6872    0.0000 C   0  0  0  0  0  0  0  0  0
   10.5845   -2.0997    0.0000 F   0  0  0  0  0  0  0  0  0
    9.1556   -2.0997    0.0000 C   0  0  0  0  0  0  0  0  0
    8.4411   -1.6872    0.0000 C   0  0  0  0  0  0  0  0  0
  1  2  1  0  0  0  0
  2  3  4  0  0  0  0
  2  7  4  0  0  0  0
  3  4  4  0  0  0  0
  4  5  4  0  0  0  0
  5  6  4  0  0  0  0
  5  8  1  0  0  0  0
  6  7  4  0  0  0  0
  8  9  1  0  0  0  0
  8 10  1  0  0  0  0
 10 11  1  0  0  0  0
 10 15  1  0  0  0  0
 11 12  1  0  0  0  0
 12 13  1  0  0  0  0
 13 14  1  0  0  0  0
 13 16  1  0  0  0  0
 14 15  1  0  0  0  0
 16 17  1  0  0  0  0
 17 18  1  0  0  0  0
 18 19  1  0  0  0  0
 19 20  2  0  0  0  0
 19 21  1  0  0  0  0
 21 22  4  0  0  0  0
 21 27  4  0  0  0  0
 22 23  4  0  0  0  0
 23 24  4  0  0  0  0
 24 25  1  0  0  0  0
 24 26  4  0  0  0  0
 26 27  4  0  0  0  0
M  END
>  <Name_Molregno>
245760

>  <DOPAMINE D2>
7.62

>  <DOPAMINE D3>
7.11

>  <DOPAMINE D4>
6.91

$$$$
245762
  Marvin  02231216192D 0   1.00000     0.00000     0

 27 29  0  0  0  0  0  0  0  0999 V2000
   -0.1099   -0.5169    0.0000 Cl  0  0  0  0  0  0  0  0  0
    0.7026   -0.3736    0.0000 C   0  0  0  0  0  0  0  0  0
    0.9848    0.4017    0.0000 C   0  0  0  0  0  0  0  0  0
    1.7972    0.5449    0.0000 C   0  0  0  0  0  0  0  0  0
    2.3275   -0.0871    0.0000 C   0  0  0  0  0  0  0  0  0
    2.0454   -0.8623    0.0000 C   0  0  0  0  0  0  0  0  0
    1.2329   -1.0056    0.0000 C   0  0  0  0  0  0  0  0  0
    3.1400    0.0562    0.0000 C   0  0  0  0  0  0  0  0  0
    3.8545    0.4687    0.0000 C   0  0  0  0  0  0  0  0  0
    4.5689    0.0562    0.0000 C   0  0  0  0  0  0  0  0  0
    4.5689   -0.7688    0.0000 N   0  0  0  0  0  0  0  0  0
    3.8545   -1.1813    0.0000 C   0  0  0  0  0  0  0  0  0
    3.1400   -0.7688    0.0000 C   0  0  0  0  0  0  0  0  0
    5.2834   -1.1813    0.0000 C   0  0  0  0  0  0  0  0  0
    5.9979   -0.7688    0.0000 C   0  0  0  0  0  0  0  0  0
    6.7123   -1.1813    0.0000 C   0  0  0  0  0  0  0  0  0
    7.4268   -0.7688    0.0000 C   0  0  0  0  0  0  0  0  0
    7.4268    0.0562    0.0000 O   0  0  0  0  0  0  0  0  0
    8.1413   -1.1813    0.0000 C   0  0  0  0  0  0  0  0  0
    8.8558   -0.7688    0.0000 C   0  0  0  0  0  0  0  0  0
    9.5702   -1.1813    0.0000 C   0  0  0  0  0  0  0  0  0
    9.5702   -2.0063    0.0000 C   0  0  0  0  0  0  0  0  0
   10.2847   -2.4188    0.0000 F   0  0  0  0  0  0  0  0  0
    8.8558   -2.4188    0.0000 C   0  0  0  0  0  0  0  0  0
    8.1413   -2.0063    0.0000 C   0  0  0  0  0  0  0  0  0
    2.8578    0.8314    0.0000 C   0  0  0  0  0  0  0  0  0
    3.3881    1.4634    0.0000 O   0  0  0  0  0  0  0  0  0
  1  2  1  0  0  0  0
  2  3  4  0  0  0  0
  2  7  4  0  0  0  0
  3  4  4  0  0  0  0
  4  5  4  0  0  0  0
  5  6  4  0  0  0  0
  5  8  1  0  0  0  0
  6  7  4  0  0  0  0
  8  9  1  0  0  0  0
  8 13  1  0  0  0  0
  8 26  1  0  0  0  0
  9 10  1  0  0  0  0
 10 11  1  0  0  0  0
 11 12  1  0  0  0  0
 11 14  1  0  0  0  0
 12 13  1  0  0  0  0
 14 15  1  0  0  0  0
 15 16  1  0  0  0  0
 16 17  1  0  0  0  0
 17 18  2  0  0  0  0
 17 19  1  0  0  0  0
 19 20  4  0  0  0  0
 19 25  4  0  0  0  0
 20 21  4  0  0  0  0
 21 22  4  0  0  0  0
 22 23  1  0  0  0  0
 22 24  4  0  0  0  0
 24 25  4  0  0  0  0
 26 27  1  0  0  0  0
M  END
>  <Name_Molregno>
245762

>  <DOPAMINE D2>
7.81

>  <DOPAMINE D3>
6.96

>  <DOPAMINE D4>
7.11

$$$$
245784
  Marvin  02231216192D 0   1.00000     0.00000     0

 25 27  0  0  0  0  0  0  0  0999 V2000
    0.2794    2.6940    0.0000 Cl  0  0  0  0  0  0  0  0  0
    0.9939    2.2815    0.0000 C   0  0  0  0  0  0  0  0  0
    1.7084    2.6940    0.0000 C   0  0  0  0  0  0  0  0  0
    2.4228    2.2815    0.0000 C   0  0  0  0  0  0  0  0  0
    2.4228    1.4565    0.0000 C   0  0  0  0  0  0  0  0  0
    1.7084    1.0440    0.0000 C   0  0  0  0  0  0  0  0  0
    0.9939    1.4565    0.0000 C   0  0  0  0  0  0  0  0  0
    3.1373    1.0440    0.0000 C   0  0  0  0  0  0  0  0  0
    3.8518    1.4565    0.0000 C   0  0  0  0  0  0  0  0  0
    4.5663    1.0440    0.0000 C   0  0  0  0  0  0  0  0  0
    4.5663    0.2190    0.0000 N   0  3  0  0  0  0  0  0  0
    3.8518   -0.1935    0.0000 C   0  0  0  0  0  0  0  0  0
    3.1373    0.2190    0.0000 C   0  0  0  0  0  0  0  0  0
    5.2807   -0.1935    0.0000 C   0  0  0  0  0  0  0  0  0
    5.9952    0.2190    0.0000 C   0  0  0  0  0  0  0  0  0
    6.7097   -0.1935    0.0000 C   0  0  0  0  0  0  0  0  0
    7.4241    0.2190    0.0000 C   0  0  0  0  0  0  0  0  0
    7.4241    1.0440    0.0000 O   0  0  0  0  0  0  0  0  0
    8.1386   -0.1935    0.0000 C   0  0  0  0  0  0  0  0  0
    8.8531    0.2190    0.0000 C   0  0  0  0  0  0  0  0  0
    9.5676   -0.1935    0.0000 C   0  0  0  0  0  0  0  0  0
    9.5676   -1.0185    0.0000 C   0  0  0  0  0  0  0  0  0
   10.2820   -1.4310    0.0000 F   0  0  0  0  0  0  0  0  0
    8.8531   -1.4310    0.0000 C   0  0  0  0  0  0  0  0  0
    8.1386   -1.0185    0.0000 C   0  0  0  0  0  0  0  0  0
  1  2  1  0  0  0  0
  2  3  4  0  0  0  0
  2  7  4  0  0  0  0
  3  4  4  0  0  0  0
  4  5  4  0  0  0  0
  5  6  4  0  0  0  0
  5  8  1  0  0  0  0
  6  7  4  0  0  0  0
  8  9  4  0  0  0  0
  8 13  4  0  0  0  0
  9 10  4  0  0  0  0
 10 11  4  0  0  0  0
 11 12  4  0  0  0  0
 11 14  1  0  0  0  0
 12 13  4  0  0  0  0
 14 15  1  0  0  0  0
 15 16  1  0  0  0  0
 16 17  1  0  0  0  0
 17 18  2  0  0  0  0
 17 19  1  0  0  0  0
 19 20  4  0  0  0  0
 19 25  4  0  0  0  0
 20 21  4  0  0  0  0
 21 22  4  0  0  0  0
 22 23  1  0  0  0  0
 22 24  4  0  0  0  0
 24 25  4  0  0  0  0
M  CHG  1  11   1
M  END
>  <Name_Molregno>
245784

>  <DOPAMINE D2>
6

>  <DOPAMINE D3>
6

>  <DOPAMINE D4>
6

$$$$
245895
  Marvin  02231216192D 0   1.00000     0.00000     0

 27 29  0  0  0  0  0  0  0  0999 V2000
   -9.4397   -0.0038    0.0000 Cl  0  0  0  0  0  0  0  0  0
   -8.6273   -0.1471    0.0000 C   0  0  0  0  0  0  0  0  0
   -8.0970    0.4849    0.0000 C   0  0  0  0  0  0  0  0  0
   -7.2845    0.3416    0.0000 C   0  0  0  0  0  0  0  0  0
   -7.0023   -0.4336    0.0000 C   0  0  0  0  0  0  0  0  0
   -7.5326   -1.0656    0.0000 C   0  0  0  0  0  0  0  0  0
   -8.3451   -0.9223    0.0000 C   0  0  0  0  0  0  0  0  0
   -6.1899   -0.5769    0.0000 C   0  0  0  0  0  0  0  0  0
   -5.9077   -1.3521    0.0000 C   0  0  0  0  0  0  0  0  0
   -6.7202   -1.4954    0.0000 O   0  0  0  0  0  0  0  0  0
   -5.1932   -0.9396    0.0000 C   0  0  0  0  0  0  0  0  0
   -4.4788   -1.3521    0.0000 C   0  0  0  0  0  0  0  0  0
   -4.4788   -2.1771    0.0000 N   0  0  0  0  0  0  0  0  0
   -5.1932   -2.5896    0.0000 C   0  0  0  0  0  0  0  0  0
   -5.9077   -2.1771    0.0000 C   0  0  0  0  0  0  0  0  0
   -3.7643   -2.5896    0.0000 C   0  0  0  0  0  0  0  0  0
   -3.0498   -2.1771    0.0000 C   0  0  0  0  0  0  0  0  0
   -2.3353   -2.5896    0.0000 C   0  0  0  0  0  0  0  0  0
   -1.6209   -2.1771    0.0000 C   0  0  0  0  0  0  0  0  0
   -1.6209   -1.3521    0.0000 O   0  0  0  0  0  0  0  0  0
   -0.9064   -2.5896    0.0000 C   0  0  0  0  0  0  0  0  0
   -0.1919   -2.1771    0.0000 C   0  0  0  0  0  0  0  0  0
    0.5225   -2.5896    0.0000 C   0  0  0  0  0  0  0  0  0
    0.5225   -3.4146    0.0000 C   0  0  0  0  0  0  0  0  0
    1.2370   -3.8271    0.0000 F   0  0  0  0  0  0  0  0  0
   -0.1919   -3.8271    0.0000 C   0  0  0  0  0  0  0  0  0
   -0.9064   -3.4146    0.0000 C   0  0  0  0  0  0  0  0  0
  1  2  1  0  0  0  0
  2  3  4  0  0  0  0
  2  7  4  0  0  0  0
  3  4  4  0  0  0  0
  4  5  4  0  0  0  0
  5  6  4  0  0  0  0
  5  8  1  0  0  0  0
  6  7  4  0  0  0  0
  8  9  1  0  0  0  0
  9 10  1  0  0  0  0
  9 11  1  0  0  0  0
  9 15  1  0  0  0  0
 11 12  1  0  0  0  0
 12 13  1  0  0  0  0
 13 14  1  0  0  0  0
 13 16  1  0  0  0  0
 14 15  1  0  0  0  0
 16 17  1  0  0  0  0
 17 18  1  0  0  0  0
 18 19  1  0  0  0  0
 19 20  2  0  0  0  0
 19 21  1  0  0  0  0
 21 22  4  0  0  0  0
 21 27  4  0  0  0  0
 22 23  4  0  0  0  0
 23 24  4  0  0  0  0
 24 25  1  0  0  0  0
 24 26  4  0  0  0  0
 26 27  4  0  0  0  0
M  END
>  <Name_Molregno>
245895

>  <DOPAMINE D2>
8.1

>  <DOPAMINE D3>
8.05

>  <DOPAMINE D4>
7.23

$$$$
245896
  Marvin  02231216192D 0   1.00000     0.00000     0

 25 27  0  0  0  0  0  0  0  0999 V2000
    0.2794    2.6940    0.0000 Cl  0  0  0  0  0  0  0  0  0
    0.9939    2.2815    0.0000 C   0  0  0  0  0  0  0  0  0
    1.7084    2.6940    0.0000 C   0  0  0  0  0  0  0  0  0
    2.4228    2.2815    0.0000 C   0  0  0  0  0  0  0  0  0
    2.4228    1.4565    0.0000 C   0  0  0  0  0  0  0  0  0
    1.7084    1.0440    0.0000 C   0  0  0  0  0  0  0  0  0
    0.9939    1.4565    0.0000 C   0  0  0  0  0  0  0  0  0
    3.1373    1.0440    0.0000 C   0  0  0  0  0  0  0  0  0
    3.8518    1.4565    0.0000 C   0  0  0  0  0  0  0  0  0
    4.5663    1.0440    0.0000 C   0  0  0  0  0  0  0  0  0
    4.5663    0.2190    0.0000 N   0  0  0  0  0  0  0  0  0
    3.8518   -0.1935    0.0000 C   0  0  0  0  0  0  0  0  0
    3.1373    0.2190    0.0000 C   0  0  0  0  0  0  0  0  0
    5.2807   -0.1935    0.0000 C   0  0  0  0  0  0  0  0  0
    5.9952    0.2190    0.0000 C   0  0  0  0  0  0  0  0  0
    6.7097   -0.1935    0.0000 C   0  0  0  0  0  0  0  0  0
    7.4241    0.2190    0.0000 C   0  0  0  0  0  0  0  0  0
    7.4241    1.0440    0.0000 O   0  0  0  0  0  0  0  0  0
    8.1386   -0.1935    0.0000 C   0  0  0  0  0  0  0  0  0
    8.8531    0.2190    0.0000 C   0  0  0  0  0  0  0  0  0
    9.5676   -0.1935    0.0000 C   0  0  0  0  0  0  0  0  0
    9.5676   -1.0185    0.0000 C   0  0  0  0  0  0  0  0  0
   10.2820   -1.4310    0.0000 F   0  0  0  0  0  0  0  0  0
    8.8531   -1.4310    0.0000 C   0  0  0  0  0  0  0  0  0
    8.1386   -1.0185    0.0000 C   0  0  0  0  0  0  0  0  0
  1  2  1  0  0  0  0
  2  3  4  0  0  0  0
  2  7  4  0  0  0  0
  3  4  4  0  0  0  0
  4  5  4  0  0  0  0
  5  6  4  0  0  0  0
  5  8  1  0  0  0  0
  6  7  4  0  0  0  0
  8  9  1  0  0  0  0
  8 13  1  0  0  0  0
  9 10  1  0  0  0  0
 10 11  1  0  0  0  0
 11 12  1  0  0  0  0
 11 14  1  0  0  0  0
 12 13  1  0  0  0  0
 14 15  1  0  0  0  0
 15 16  1  0  0  0  0
 16 17  1  0  0  0  0
 17 18  2  0  0  0  0
 17 19  1  0  0  0  0
 19 20  4  0  0  0  0
 19 25  4  0  0  0  0
 20 21  4  0  0  0  0
 21 22  4  0  0  0  0
 22 23  1  0  0  0  0
 22 24  4  0  0  0  0
 24 25  4  0  0  0  0
M  END
>  <Name_Molregno>
245896

>  <DOPAMINE D2>
7.81

>  <DOPAMINE D3>
7.34

>  <DOPAMINE D4>
7.59

$$$$
256556
  Marvin  02231216192D 0   1.00000     0.00000     0

 30 33  0  0  0  0  0  0  0  0999 V2000
   -0.1145    0.0206    0.0000 Cl  0  0  0  0  0  0  0  0  0
   -0.1145   -0.8044    0.0000 C   0  0  0  0  0  0  0  0  0
    0.6000   -1.2169    0.0000 C   0  0  0  0  0  0  0  0  0
    1.3144   -0.8044    0.0000 N   0  0  0  0  0  0  0  0  0
    1.3144    0.0206    0.0000 C   0  0  0  0  0  0  0  0  0
    2.0289    0.4331    0.0000 C   0  0  0  0  0  0  0  0  0
    2.7434    0.0206    0.0000 N   0  0  0  0  0  0  0  0  0
    2.7434   -0.8044    0.0000 C   0  0  0  0  0  0  0  0  0
    2.0289   -1.2169    0.0000 C   0  0  0  0  0  0  0  0  0
    3.4579    0.4331    0.0000 C   0  0  0  0  0  0  0  0  0
    4.1723    0.0206    0.0000 C   0  0  0  0  0  0  0  0  0
    4.8868    0.4331    0.0000 C   0  0  0  0  0  0  0  0  0
    5.6013    0.0206    0.0000 C   0  0  0  0  0  0  0  0  0
    6.3157    0.4331    0.0000 N   0  0  0  0  0  0  0  0  0
    7.0302    0.0206    0.0000 C   0  0  0  0  0  0  0  0  0
    7.0302   -0.8044    0.0000 O   0  0  0  0  0  0  0  0  0
    7.7447    0.4331    0.0000 C   0  0  0  0  0  0  0  0  0
    8.4984    0.0976    0.0000 N   0  0  0  0  0  0  0  0  0
    9.0504    0.7107    0.0000 C   0  0  0  0  0  0  0  0  0
    8.6379    1.4251    0.0000 C   0  0  0  0  0  0  0  0  0
    7.8309    1.2536    0.0000 C   0  0  0  0  0  0  0  0  0
    9.0504    2.1396    0.0000 C   0  0  0  0  0  0  0  0  0
    9.8754    2.1396    0.0000 C   0  0  0  0  0  0  0  0  0
   10.2879    1.4251    0.0000 C   0  0  0  0  0  0  0  0  0
    9.8754    0.7107    0.0000 C   0  0  0  0  0  0  0  0  0
    0.6000   -2.0419    0.0000 C   0  0  0  0  0  0  0  0  0
   -0.1145   -2.4544    0.0000 C   0  0  0  0  0  0  0  0  0
   -0.8290   -2.0419    0.0000 C   0  0  0  0  0  0  0  0  0
   -0.8290   -1.2169    0.0000 C   0  0  0  0  0  0  0  0  0
   -1.5434   -0.8044    0.0000 Cl  0  0  0  0  0  0  0  0  0
  1  2  1  0  0  0  0
  2  3  4  0  0  0  0
  2 29  4  0  0  0  0
  3  4  1  0  0  0  0
  3 26  4  0  0  0  0
  4  5  1  0  0  0  0
  4  9  1  0  0  0  0
  5  6  1  0  0  0  0
  6  7  1  0  0  0  0
  7  8  1  0  0  0  0
  7 10  1  0  0  0  0
  8  9  1  0  0  0  0
 10 11  1  0  0  0  0
 11 12  1  0  0  0  0
 12 13  1  0  0  0  0
 13 14  1  0  0  0  0
 14 15  1  0  0  0  0
 15 16  2  0  0  0  0
 15 17  1  0  0  0  0
 17 18  4  0  0  0  0
 17 21  4  0  0  0  0
 18 19  4  0  0  0  0
 19 20  4  0  0  0  0
 19 25  4  0  0  0  0
 20 21  4  0  0  0  0
 20 22  4  0  0  0  0
 22 23  4  0  0  0  0
 23 24  4  0  0  0  0
 24 25  4  0  0  0  0
 26 27  4  0  0  0  0
 27 28  4  0  0  0  0
 28 29  4  0  0  0  0
 29 30  1  0  0  0  0
M  STY  1   1 DAT
M  SAL   1  1  18
M  SDT   1 MRV_IMPLICIT_H                                        
M  SDD   1     0.0000    0.0000    DR    ALL  0       0  
M  SED   1 IMPL_H1
M  END
>  <Name_Molregno>
256556

>  <DOPAMINE D2>
5.51

>  <DOPAMINE D3>
9.18

>  <DOPAMINE D4>
5.77

$$$$
258036
  Marvin  02231216192D 0   1.00000     0.00000     0

 20 23  0  0  0  0  0  0  0  0999 V2000
   -0.7413    1.1633    0.0000 N   0  0  0  0  0  0  0  0  0
   -0.1893    1.7764    0.0000 C   0  0  0  0  0  0  0  0  0
    0.5644    1.4408    0.0000 C   0  0  0  0  0  0  0  0  0
    0.4782    0.6203    0.0000 C   0  0  0  0  0  0  0  0  0
    1.0302    0.0073    0.0000 C   0  0  0  0  0  0  0  0  0
    0.7752   -0.7774    0.0000 C   0  0  0  0  0  0  0  0  0
   -0.0317   -0.9489    0.0000 C   0  0  0  0  0  0  0  0  0
   -0.5838   -0.3358    0.0000 N   0  0  0  0  0  0  0  0  0
   -0.3288    0.4488    0.0000 C   0  0  0  0  0  0  0  0  0
    1.2789    1.8533    0.0000 C   0  0  0  0  0  0  0  0  0
    1.9933    1.4408    0.0000 N   0  0  0  0  0  0  0  0  0
    1.9933    0.6158    0.0000 C   0  0  0  0  0  0  0  0  0
    2.7078    0.2033    0.0000 C   0  0  0  0  0  0  0  0  0
    3.4223    0.6158    0.0000 C   0  0  0  0  0  0  0  0  0
    3.4223    1.4408    0.0000 C   0  0  0  0  0  0  0  0  0
    2.7078    1.8533    0.0000 C   0  0  0  0  0  0  0  0  0
    4.1367    1.8533    0.0000 C   0  0  0  0  0  0  0  0  0
    4.8512    1.4408    0.0000 C   0  0  0  0  0  0  0  0  0
    4.8512    0.6158    0.0000 C   0  0  0  0  0  0  0  0  0
    4.1367    0.2033    0.0000 C   0  0  0  0  0  0  0  0  0
  1  2  4  0  0  0  0
  1  9  4  0  0  0  0
  2  3  4  0  0  0  0
  3  4  4  0  0  0  0
  3 10  1  0  0  0  0
  4  5  4  0  0  0  0
  4  9  4  0  0  0  0
  5  6  4  0  0  0  0
  6  7  4  0  0  0  0
  7  8  4  0  0  0  0
  8  9  4  0  0  0  0
 10 11  1  0  0  0  0
 11 12  1  0  0  0  0
 11 16  1  0  0  0  0
 12 13  1  0  0  0  0
 13 14  1  0  0  0  0
 14 15  4  0  0  0  0
 14 20  4  0  0  0  0
 15 16  1  0  0  0  0
 15 17  4  0  0  0  0
 17 18  4  0  0  0  0
 18 19  4  0  0  0  0
 19 20  4  0  0  0  0
M  STY  1   1 DAT
M  SAL   1  1   1
M  SDT   1 MRV_IMPLICIT_H                                        
M  SDD   1     0.0000    0.0000    DR    ALL  0       0  
M  SED   1 IMPL_H1
M  END
>  <Name_Molregno>
258036

>  <DOPAMINE D2>
6.19

>  <DOPAMINE D3>
6.77

>  <DOPAMINE D4>
8.15

$$$$
258050
  Marvin  02231216192D 0   1.00000     0.00000     0

 24 27  0  0  0  0  0  0  0  0999 V2000
    1.2127   -2.4092    0.0000 N   0  0  0  0  0  0  0  0  0
    0.7278   -1.7417    0.0000 C   0  0  0  0  0  0  0  0  0
    1.2127   -1.0743    0.0000 C   0  0  0  0  0  0  0  0  0
    1.9974   -1.3292    0.0000 C   0  0  0  0  0  0  0  0  0
    2.7118   -0.9167    0.0000 C   0  0  0  0  0  0  0  0  0
    3.4263   -1.3292    0.0000 C   0  0  0  0  0  0  0  0  0
    3.4263   -2.1542    0.0000 C   0  0  0  0  0  0  0  0  0
    2.7118   -2.5667    0.0000 N   0  0  0  0  0  0  0  0  0
    1.9974   -2.1542    0.0000 C   0  0  0  0  0  0  0  0  0
    0.9578   -0.2897    0.0000 C   0  0  0  0  0  0  0  0  0
    1.5098    0.3234    0.0000 N   0  0  0  0  0  0  0  0  0
    1.2549    1.1081    0.0000 C   0  0  0  0  0  0  0  0  0
    1.8069    1.7212    0.0000 C   0  0  0  0  0  0  0  0  0
    2.6139    1.5496    0.0000 C   0  0  0  0  0  0  0  0  0
    2.8688    0.7650    0.0000 C   0  0  0  0  0  0  0  0  0
    2.3168    0.1519    0.0000 C   0  0  0  0  0  0  0  0  0
    3.1659    2.1627    0.0000 C   0  0  0  0  0  0  0  0  0
    2.9110    2.9473    0.0000 C   0  0  0  0  0  0  0  0  0
    3.4630    3.5604    0.0000 C   0  0  0  0  0  0  0  0  0
    3.2081    4.3451    0.0000 C   0  0  0  0  0  0  0  0  0
    3.7601    4.9582    0.0000 C   0  0  0  0  0  0  0  0  0
    4.5671    4.7866    0.0000 C   0  0  0  0  0  0  0  0  0
    4.8220    4.0020    0.0000 C   0  0  0  0  0  0  0  0  0
    4.2700    3.3889    0.0000 C   0  0  0  0  0  0  0  0  0
  1  2  4  0  0  0  0
  1  9  4  0  0  0  0
  2  3  4  0  0  0  0
  3  4  4  0  0  0  0
  3 10  1  0  0  0  0
  4  5  4  0  0  0  0
  4  9  4  0  0  0  0
  5  6  4  0  0  0  0
  6  7  4  0  0  0  0
  7  8  4  0  0  0  0
  8  9  4  0  0  0  0
 10 11  1  0  0  0  0
 11 12  1  0  0  0  0
 11 16  1  0  0  0  0
 12 13  1  0  0  0  0
 13 14  1  0  0  0  0
 14 15  1  0  0  0  0
 14 17  1  0  0  0  0
 15 16  1  0  0  0  0
 17 18  1  0  0  0  0
 18 19  1  0  0  0  0
 19 20  4  0  0  0  0
 19 24  4  0  0  0  0
 20 21  4  0  0  0  0
 21 22  4  0  0  0  0
 22 23  4  0  0  0  0
 23 24  4  0  0  0  0
M  STY  1   1 DAT
M  SAL   1  1   1
M  SDT   1 MRV_IMPLICIT_H                                        
M  SDD   1     0.0000    0.0000    DR    ALL  0       0  
M  SED   1 IMPL_H1
M  END
>  <Name_Molregno>
258050

>  <DOPAMINE D2>
5.96

>  <DOPAMINE D3>
5.89

>  <DOPAMINE D4>
8.74

$$$$
258089
  Marvin  02231216192D 0   1.00000     0.00000     0

 24 27  0  0  0  0  0  0  0  0999 V2000
    0.0803   -3.3053    0.0000 N   0  0  0  0  0  0  0  0  0
   -0.6341   -2.8928    0.0000 C   0  0  0  0  0  0  0  0  0
   -1.4188   -3.1478    0.0000 N   0  0  0  0  0  0  0  0  0
   -1.9037   -2.4803    0.0000 C   0  0  0  0  0  0  0  0  0
   -1.4188   -1.8129    0.0000 C   0  0  0  0  0  0  0  0  0
   -0.6341   -2.0678    0.0000 C   0  0  0  0  0  0  0  0  0
    0.0803   -1.6553    0.0000 C   0  0  0  0  0  0  0  0  0
    0.7948   -2.0678    0.0000 C   0  0  0  0  0  0  0  0  0
    0.7948   -2.8928    0.0000 C   0  0  0  0  0  0  0  0  0
   -2.7287   -2.4803    0.0000 C   0  0  0  0  0  0  0  0  0
   -3.1412   -1.7659    0.0000 N   0  0  0  0  0  0  0  0  0
   -3.9662   -1.7659    0.0000 C   0  0  0  0  0  0  0  0  0
   -4.3787   -1.0514    0.0000 C   0  0  0  0  0  0  0  0  0
   -3.9662   -0.3369    0.0000 C   0  0  0  0  0  0  0  0  0
   -3.1412   -0.3369    0.0000 C   0  0  0  0  0  0  0  0  0
   -2.7287   -1.0514    0.0000 C   0  0  0  0  0  0  0  0  0
   -4.3787    0.3775    0.0000 C   0  0  0  0  0  0  0  0  0
   -5.2037    0.3775    0.0000 C   0  0  0  0  0  0  0  0  0
   -5.6162    1.0920    0.0000 C   0  0  0  0  0  0  0  0  0
   -6.4412    1.0920    0.0000 C   0  0  0  0  0  0  0  0  0
   -6.8537    1.8065    0.0000 C   0  0  0  0  0  0  0  0  0
   -6.4412    2.5210    0.0000 C   0  0  0  0  0  0  0  0  0
   -5.6162    2.5210    0.0000 C   0  0  0  0  0  0  0  0  0
   -5.2037    1.8065    0.0000 C   0  0  0  0  0  0  0  0  0
  1  2  4  0  0  0  0
  1  9  4  0  0  0  0
  2  3  4  0  0  0  0
  2  6  4  0  0  0  0
  3  4  4  0  0  0  0
  4  5  4  0  0  0  0
  4 10  1  0  0  0  0
  5  6  4  0  0  0  0
  6  7  4  0  0  0  0
  7  8  4  0  0  0  0
  8  9  4  0  0  0  0
 10 11  1  0  0  0  0
 11 12  1  0  0  0  0
 11 16  1  0  0  0  0
 12 13  1  0  0  0  0
 13 14  1  0  0  0  0
 14 15  1  0  0  0  0
 14 17  1  0  0  0  0
 15 16  1  0  0  0  0
 17 18  1  0  0  0  0
 18 19  1  0  0  0  0
 19 20  4  0  0  0  0
 19 24  4  0  0  0  0
 20 21  4  0  0  0  0
 21 22  4  0  0  0  0
 22 23  4  0  0  0  0
 23 24  4  0  0  0  0
M  STY  1   1 DAT
M  SAL   1  1   1
M  SDT   1 MRV_IMPLICIT_H                                        
M  SDD   1     0.0000    0.0000    DR    ALL  0       0  
M  SED   1 IMPL_H1
M  END
>  <Name_Molregno>
258089

>  <DOPAMINE D2>
6.7

>  <DOPAMINE D3>
6.6

>  <DOPAMINE D4>
8.7

$$$$
258090
  Marvin  02231216192D 0   1.00000     0.00000     0

 23 26  0  0  1  0  0  0  0  0999 V2000
    3.7240   -2.4669    0.0000 N   0  0  0  0  0  0  0  0  0
    3.2391   -1.7995    0.0000 C   0  0  0  0  0  0  0  0  0
    3.7240   -1.1321    0.0000 C   0  0  0  0  0  0  0  0  0
    4.5086   -1.3870    0.0000 C   0  0  0  0  0  0  0  0  0
    5.2231   -0.9745    0.0000 C   0  0  0  0  0  0  0  0  0
    5.9376   -1.3870    0.0000 C   0  0  0  0  0  0  0  0  0
    5.9376   -2.2120    0.0000 C   0  0  0  0  0  0  0  0  0
    5.2231   -2.6245    0.0000 N   0  0  0  0  0  0  0  0  0
    4.5086   -2.2120    0.0000 C   0  0  0  0  0  0  0  0  0
    3.4691   -0.3474    0.0000 C   0  0  0  0  0  0  0  0  0
    2.6621   -0.1759    0.0000 C   0  0  0  0  0  0  0  0  0
    2.4071    0.6087    0.0000 N   0  0  0  0  0  0  0  0  0
    1.6002    0.7802    0.0000 C   0  0  0  0  0  0  0  0  0
    1.3452    1.5648    0.0000 C   0  0  0  0  0  0  0  0  0
    1.8973    2.1779    0.0000 C   0  0  0  0  0  0  0  0  0
    2.7042    2.0064    0.0000 C   0  0  0  0  0  0  0  0  0
    2.9592    1.2218    0.0000 C   0  0  0  0  0  0  0  0  0
    1.6423    2.9626    0.0000 C   0  0  0  0  0  0  0  0  0
    0.8354    3.1341    0.0000 C   0  0  0  0  0  0  0  0  0
    0.5804    3.9187    0.0000 C   0  0  0  0  0  0  0  0  0
    1.1324    4.5318    0.0000 C   0  0  0  0  0  0  0  0  0
    1.9394    4.3603    0.0000 C   0  0  0  0  0  0  0  0  0
    2.1944    3.5757    0.0000 C   0  0  0  0  0  0  0  0  0
  1  2  4  0  0  0  0
  1  9  4  0  0  0  0
  2  3  4  0  0  0  0
  3  4  4  0  0  0  0
  3 10  1  0  0  0  0
  4  5  4  0  0  0  0
  4  9  4  0  0  0  0
  5  6  4  0  0  0  0
  6  7  4  0  0  0  0
  7  8  4  0  0  0  0
  8  9  4  0  0  0  0
 10 11  1  0  0  0  0
 11 12  1  0  0  0  0
 12 13  1  0  0  0  0
 12 17  1  0  0  0  0
 13 14  1  0  0  0  0
 14 15  1  0  0  0  0
 15 16  1  0  0  0  0
 15 18  1  0  0  0  0
 16 17  2  0  0  0  0
 18 19  4  0  0  0  0
 18 23  4  0  0  0  0
 19 20  4  0  0  0  0
 20 21  4  0  0  0  0
 21 22  4  0  0  0  0
 22 23  4  0  0  0  0
M  STY  1   1 DAT
M  SAL   1  1   1
M  SDT   1 MRV_IMPLICIT_H                                        
M  SDD   1     0.0000    0.0000    DR    ALL  0       0  
M  SED   1 IMPL_H1
M  END
>  <Name_Molregno>
258090

>  <DOPAMINE D2>
7.68

>  <DOPAMINE D3>
8

>  <DOPAMINE D4>
7.47

$$$$
258123
  Marvin  02231216192D 0   1.00000     0.00000     0

 20 23  0  0  0  0  0  0  0  0999 V2000
   -0.0791    0.0033    0.0000 N   0  0  0  0  0  0  0  0  0
    0.7459    0.0033    0.0000 C   0  0  0  0  0  0  0  0  0
    1.2979    0.6164    0.0000 N   0  0  0  0  0  0  0  0  0
    2.0516    0.2808    0.0000 C   0  0  0  0  0  0  0  0  0
    1.9654   -0.5396    0.0000 C   0  0  0  0  0  0  0  0  0
    1.1584   -0.7112    0.0000 C   0  0  0  0  0  0  0  0  0
    0.7459   -1.4256    0.0000 C   0  0  0  0  0  0  0  0  0
   -0.0791   -1.4256    0.0000 C   0  0  0  0  0  0  0  0  0
   -0.4916   -0.7112    0.0000 C   0  0  0  0  0  0  0  0  0
    2.7661    0.6933    0.0000 C   0  0  0  0  0  0  0  0  0
    3.4806    0.2808    0.0000 N   0  0  0  0  0  0  0  0  0
    3.4806   -0.5442    0.0000 C   0  0  0  0  0  0  0  0  0
    4.1950   -0.9567    0.0000 C   0  0  0  0  0  0  0  0  0
    4.9095   -0.5442    0.0000 C   0  0  0  0  0  0  0  0  0
    4.9095    0.2808    0.0000 C   0  0  0  0  0  0  0  0  0
    4.1950    0.6933    0.0000 C   0  0  0  0  0  0  0  0  0
    5.6240    0.6933    0.0000 C   0  0  0  0  0  0  0  0  0
    6.3384    0.2808    0.0000 C   0  0  0  0  0  0  0  0  0
    6.3384   -0.5442    0.0000 C   0  0  0  0  0  0  0  0  0
    5.6240   -0.9567    0.0000 C   0  0  0  0  0  0  0  0  0
  1  2  4  0  0  0  0
  1  9  4  0  0  0  0
  2  3  4  0  0  0  0
  2  6  4  0  0  0  0
  3  4  4  0  0  0  0
  4  5  4  0  0  0  0
  4 10  1  0  0  0  0
  5  6  4  0  0  0  0
  6  7  4  0  0  0  0
  7  8  4  0  0  0  0
  8  9  4  0  0  0  0
 10 11  1  0  0  0  0
 11 12  1  0  0  0  0
 11 16  1  0  0  0  0
 12 13  1  0  0  0  0
 13 14  1  0  0  0  0
 14 15  4  0  0  0  0
 14 20  4  0  0  0  0
 15 16  1  0  0  0  0
 15 17  4  0  0  0  0
 17 18  4  0  0  0  0
 18 19  4  0  0  0  0
 19 20  4  0  0  0  0
M  STY  1   1 DAT
M  SAL   1  1   1
M  SDT   1 MRV_IMPLICIT_H                                        
M  SDD   1     0.0000    0.0000    DR    ALL  0       0  
M  SED   1 IMPL_H1
M  END
>  <Name_Molregno>
258123

>  <DOPAMINE D2>
6.22

>  <DOPAMINE D3>
5.96

>  <DOPAMINE D4>
7.23

$$$$
258126
  Marvin  02231216192D 0   1.00000     0.00000     0

 25 28  0  0  1  0  0  0  0  0999 V2000
    4.6567   -3.0681    0.0000 N   0  0  0  0  0  0  0  0  0
    4.1718   -2.4006    0.0000 C   0  0  0  0  0  0  0  0  0
    4.6567   -1.7332    0.0000 C   0  0  0  0  0  0  0  0  0
    5.4413   -1.9881    0.0000 C   0  0  0  0  0  0  0  0  0
    6.1558   -1.5756    0.0000 C   0  0  0  0  0  0  0  0  0
    6.8703   -1.9881    0.0000 C   0  0  0  0  0  0  0  0  0
    6.8703   -2.8131    0.0000 C   0  0  0  0  0  0  0  0  0
    6.1558   -3.2256    0.0000 N   0  0  0  0  0  0  0  0  0
    5.4413   -2.8131    0.0000 C   0  0  0  0  0  0  0  0  0
    4.4018   -0.9486    0.0000 C   0  0  0  0  0  0  0  0  0
    3.5948   -0.7770    0.0000 C   0  0  0  0  0  0  0  0  0
    3.3399    0.0076    0.0000 N   0  0  0  0  0  0  0  0  0
    2.5329    0.1791    0.0000 C   0  0  0  0  0  0  0  0  0
    2.2780    0.9637    0.0000 C   0  0  0  0  0  0  0  0  0
    2.8300    1.5768    0.0000 C   0  0  0  0  0  0  0  0  0
    3.6370    1.4053    0.0000 C   0  0  0  0  0  0  0  0  0
    3.8919    0.6207    0.0000 C   0  0  0  0  0  0  0  0  0
    2.5751    2.3614    0.0000 C   0  0  0  0  0  0  0  0  0
    1.7681    2.5330    0.0000 C   0  0  0  0  0  0  0  0  0
    1.5131    3.3176    0.0000 C   0  0  0  0  0  0  0  0  0
    0.7062    3.4891    0.0000 C   0  0  0  0  0  0  0  0  0
    0.4512    4.2737    0.0000 C   0  0  0  0  0  0  0  0  0
    1.0033    4.8868    0.0000 C   0  0  0  0  0  0  0  0  0
    1.8102    4.7153    0.0000 C   0  0  0  0  0  0  0  0  0
    2.0652    3.9307    0.0000 C   0  0  0  0  0  0  0  0  0
  1  2  4  0  0  0  0
  1  9  4  0  0  0  0
  2  3  4  0  0  0  0
  3  4  4  0  0  0  0
  3 10  1  0  0  0  0
  4  5  4  0  0  0  0
  4  9  4  0  0  0  0
  5  6  4  0  0  0  0
  6  7  4  0  0  0  0
  7  8  4  0  0  0  0
  8  9  4  0  0  0  0
 10 11  1  0  0  0  0
 11 12  1  0  0  0  0
 12 13  1  0  0  0  0
 12 17  1  0  0  0  0
 13 14  1  0  0  0  0
 14 15  1  0  0  0  0
 15 16  1  0  0  0  0
 15 18  1  0  0  0  0
 16 17  2  0  0  0  0
 18 19  2  0  0  0  0
 19 20  1  0  0  0  0
 20 21  4  0  0  0  0
 20 25  4  0  0  0  0
 21 22  4  0  0  0  0
 22 23  4  0  0  0  0
 23 24  4  0  0  0  0
 24 25  4  0  0  0  0
M  STY  1   1 DAT
M  SAL   1  1   1
M  SDT   1 MRV_IMPLICIT_H                                        
M  SDD   1     0.0000    0.0000    DR    ALL  0       0  
M  SED   1 IMPL_H1
M  END
>  <Name_Molregno>
258126

>  <DOPAMINE D2>
6.55

>  <DOPAMINE D3>
6.74

>  <DOPAMINE D4>
8.19

$$$$
258171
  Marvin  02231216192D 0   1.00000     0.00000     0

 25 28  0  0  0  0  0  0  0  0999 V2000
    0.1065   -0.3123    0.0000 N   0  0  0  0  0  0  0  0  0
   -0.6080    0.1002    0.0000 C   0  0  0  0  0  0  0  0  0
   -1.3926   -0.1548    0.0000 N   0  0  0  0  0  0  0  0  0
   -1.8775    0.5127    0.0000 C   0  0  0  0  0  0  0  0  0
   -1.3926    1.1801    0.0000 C   0  0  0  0  0  0  0  0  0
   -0.6080    0.9252    0.0000 C   0  0  0  0  0  0  0  0  0
    0.1065    1.3377    0.0000 C   0  0  0  0  0  0  0  0  0
    0.8210    0.9252    0.0000 C   0  0  0  0  0  0  0  0  0
    0.8210    0.1002    0.0000 C   0  0  0  0  0  0  0  0  0
   -2.7025    0.5127    0.0000 C   0  0  0  0  0  0  0  0  0
   -3.1150   -0.2018    0.0000 C   0  0  0  0  0  0  0  0  0
   -3.9400   -0.2018    0.0000 N   0  0  0  0  0  0  0  0  0
   -4.3525   -0.9163    0.0000 C   0  0  0  0  0  0  0  0  0
   -5.1775   -0.9163    0.0000 C   0  0  0  0  0  0  0  0  0
   -5.5900   -0.2018    0.0000 C   0  0  0  0  0  0  0  0  0
   -5.1775    0.5127    0.0000 C   0  0  0  0  0  0  0  0  0
   -4.3525    0.5127    0.0000 C   0  0  0  0  0  0  0  0  0
   -6.4150   -0.2018    0.0000 C   0  0  0  0  0  0  0  0  0
   -6.8275   -0.9163    0.0000 C   0  0  0  0  0  0  0  0  0
   -7.6525   -0.9163    0.0000 C   0  0  0  0  0  0  0  0  0
   -8.0650   -1.6308    0.0000 C   0  0  0  0  0  0  0  0  0
   -8.8900   -1.6308    0.0000 C   0  0  0  0  0  0  0  0  0
   -9.3025   -0.9163    0.0000 C   0  0  0  0  0  0  0  0  0
   -8.8900   -0.2018    0.0000 C   0  0  0  0  0  0  0  0  0
   -8.0650   -0.2018    0.0000 C   0  0  0  0  0  0  0  0  0
  1  2  4  0  0  0  0
  1  9  4  0  0  0  0
  2  3  4  0  0  0  0
  2  6  4  0  0  0  0
  3  4  4  0  0  0  0
  4  5  4  0  0  0  0
  4 10  1  0  0  0  0
  5  6  4  0  0  0  0
  6  7  4  0  0  0  0
  7  8  4  0  0  0  0
  8  9  4  0  0  0  0
 10 11  1  0  0  0  0
 11 12  1  0  0  0  0
 12 13  1  0  0  0  0
 12 17  1  0  0  0  0
 13 14  1  0  0  0  0
 14 15  1  0  0  0  0
 15 16  2  0  0  0  0
 15 18  1  0  0  0  0
 16 17  1  0  0  0  0
 18 19  2  0  0  0  0
 19 20  1  0  0  0  0
 20 21  4  0  0  0  0
 20 25  4  0  0  0  0
 21 22  4  0  0  0  0
 22 23  4  0  0  0  0
 23 24  4  0  0  0  0
 24 25  4  0  0  0  0
M  STY  1   1 DAT
M  SAL   1  1   1
M  SDT   1 MRV_IMPLICIT_H                                        
M  SDD   1     0.0000    0.0000    DR    ALL  0       0  
M  SED   1 IMPL_H1
M  END
>  <Name_Molregno>
258171

>  <DOPAMINE D2>
5.89

>  <DOPAMINE D3>
7.6

>  <DOPAMINE D4>
7.52

$$$$
258205
  Marvin  02231216192D 0   1.00000     0.00000     0

 24 27  0  0  0  0  0  0  0  0999 V2000
   -0.1324   -0.5831    0.0000 Cl  0  0  0  0  0  0  0  0  0
    0.6926   -0.5831    0.0000 C   0  0  0  0  0  0  0  0  0
    1.1051    0.1314    0.0000 C   0  0  0  0  0  0  0  0  0
    1.9301    0.1314    0.0000 C   0  0  0  0  0  0  0  0  0
    2.3426   -0.5831    0.0000 C   0  0  0  0  0  0  0  0  0
    3.1676   -0.5831    0.0000 N   0  0  0  0  0  0  0  0  0
    3.5801    0.1314    0.0000 C   0  0  0  0  0  0  0  0  0
    4.4051    0.1314    0.0000 C   0  0  0  0  0  0  0  0  0
    4.8176   -0.5831    0.0000 N   0  0  0  0  0  0  0  0  0
    4.4051   -1.2976    0.0000 C   0  0  0  0  0  0  0  0  0
    3.5801   -1.2976    0.0000 C   0  0  0  0  0  0  0  0  0
    5.6426   -0.5831    0.0000 C   0  0  0  0  0  0  0  0  0
    6.0551    0.1314    0.0000 C   0  0  0  0  0  0  0  0  0
    6.8801    0.1314    0.0000 C   0  0  0  0  0  0  0  0  0
    7.3650    0.7988    0.0000 N   0  0  0  0  0  0  0  0  0
    8.1496    0.5439    0.0000 C   0  0  0  0  0  0  0  0  0
    8.8641    0.9564    0.0000 N   0  0  0  0  0  0  0  0  0
    9.5786    0.5439    0.0000 C   0  0  0  0  0  0  0  0  0
    9.5786   -0.2811    0.0000 C   0  0  0  0  0  0  0  0  0
    8.8641   -0.6936    0.0000 C   0  0  0  0  0  0  0  0  0
    8.1496   -0.2811    0.0000 C   0  0  0  0  0  0  0  0  0
    7.3650   -0.5361    0.0000 C   0  0  0  0  0  0  0  0  0
    1.9301   -1.2976    0.0000 C   0  0  0  0  0  0  0  0  0
    1.1051   -1.2976    0.0000 C   0  0  0  0  0  0  0  0  0
  1  2  1  0  0  0  0
  2  3  4  0  0  0  0
  2 24  4  0  0  0  0
  3  4  4  0  0  0  0
  4  5  4  0  0  0  0
  5  6  1  0  0  0  0
  5 23  4  0  0  0  0
  6  7  1  0  0  0  0
  6 11  1  0  0  0  0
  7  8  1  0  0  0  0
  8  9  1  0  0  0  0
  9 10  1  0  0  0  0
  9 12  1  0  0  0  0
 10 11  1  0  0  0  0
 12 13  1  0  0  0  0
 13 14  1  0  0  0  0
 14 15  4  0  0  0  0
 14 22  4  0  0  0  0
 15 16  4  0  0  0  0
 16 17  4  0  0  0  0
 16 21  4  0  0  0  0
 17 18  4  0  0  0  0
 18 19  4  0  0  0  0
 19 20  4  0  0  0  0
 20 21  4  0  0  0  0
 21 22  4  0  0  0  0
 23 24  4  0  0  0  0
M  STY  1   1 DAT
M  SAL   1  1  17
M  SDT   1 MRV_IMPLICIT_H                                        
M  SDD   1     0.0000    0.0000    DR    ALL  0       0  
M  SED   1 IMPL_H1
M  END
>  <Name_Molregno>
258205

>  <DOPAMINE D2>
6.1

>  <DOPAMINE D3>
7.3

>  <DOPAMINE D4>
7.93

$$$$
258217
  Marvin  02231216192D 0   1.00000     0.00000     0

 25 28  0  0  0  0  0  0  0  0999 V2000
    2.6505    4.7864    0.0000 O   0  0  0  0  0  0  0  0  0
    1.8435    4.9579    0.0000 C   0  0  0  0  0  0  0  0  0
    2.9054    4.0018    0.0000 C   0  0  0  0  0  0  0  0  0
    3.7124    3.8303    0.0000 C   0  0  0  0  0  0  0  0  0
    3.9673    3.0456    0.0000 C   0  0  0  0  0  0  0  0  0
    3.4153    2.4325    0.0000 C   0  0  0  0  0  0  0  0  0
    3.6702    1.6479    0.0000 N   0  0  0  0  0  0  0  0  0
    4.4772    1.4764    0.0000 C   0  0  0  0  0  0  0  0  0
    4.7321    0.6918    0.0000 C   0  0  0  0  0  0  0  0  0
    4.1801    0.0787    0.0000 N   0  0  0  0  0  0  0  0  0
    3.3731    0.2502    0.0000 C   0  0  0  0  0  0  0  0  0
    3.1182    1.0348    0.0000 C   0  0  0  0  0  0  0  0  0
    4.4350   -0.7059    0.0000 C   0  0  0  0  0  0  0  0  0
    5.2420   -0.8775    0.0000 C   0  0  0  0  0  0  0  0  0
    5.4970   -1.6621    0.0000 C   0  0  0  0  0  0  0  0  0
    6.2816   -1.9170    0.0000 C   0  0  0  0  0  0  0  0  0
    6.9961   -1.5045    0.0000 C   0  0  0  0  0  0  0  0  0
    7.7105   -1.9170    0.0000 C   0  0  0  0  0  0  0  0  0
    7.7105   -2.7420    0.0000 C   0  0  0  0  0  0  0  0  0
    6.9961   -3.1545    0.0000 N   0  0  0  0  0  0  0  0  0
    6.2816   -2.7420    0.0000 C   0  0  0  0  0  0  0  0  0
    5.4970   -2.9970    0.0000 N   0  0  0  0  0  0  0  0  0
    5.0120   -2.3295    0.0000 C   0  0  0  0  0  0  0  0  0
    2.6083    2.6041    0.0000 C   0  0  0  0  0  0  0  0  0
    2.3534    3.3887    0.0000 C   0  0  0  0  0  0  0  0  0
  1  2  1  0  0  0  0
  1  3  1  0  0  0  0
  3  4  4  0  0  0  0
  3 25  4  0  0  0  0
  4  5  4  0  0  0  0
  5  6  4  0  0  0  0
  6  7  1  0  0  0  0
  6 24  4  0  0  0  0
  7  8  1  0  0  0  0
  7 12  1  0  0  0  0
  8  9  1  0  0  0  0
  9 10  1  0  0  0  0
 10 11  1  0  0  0  0
 10 13  1  0  0  0  0
 11 12  1  0  0  0  0
 13 14  1  0  0  0  0
 14 15  1  0  0  0  0
 15 16  4  0  0  0  0
 15 23  4  0  0  0  0
 16 17  4  0  0  0  0
 16 21  4  0  0  0  0
 17 18  4  0  0  0  0
 18 19  4  0  0  0  0
 19 20  4  0  0  0  0
 20 21  4  0  0  0  0
 21 22  4  0  0  0  0
 22 23  4  0  0  0  0
 24 25  4  0  0  0  0
M  STY  1   1 DAT
M  SAL   1  1  22
M  SDT   1 MRV_IMPLICIT_H                                        
M  SDD   1     0.0000    0.0000    DR    ALL  0       0  
M  SED   1 IMPL_H1
M  END
>  <Name_Molregno>
258217

>  <DOPAMINE D2>
6.05

>  <DOPAMINE D3>
6.28

>  <DOPAMINE D4>
7.59

$$$$
259724
  Marvin  02231216192D 0   1.00000     0.00000     0

 18 20  0  0  1  0  0  0  0  0999 V2000
    0.3094   -0.9505    0.0000 N   0  0  0  0  0  0  0  0  0
    1.0239   -0.5380    0.0000 C   0  0  0  0  0  0  0  0  0
    1.7384   -0.9505    0.0000 C   0  0  0  0  0  0  0  0  0
    2.4528   -0.5380    0.0000 C   0  0  0  0  0  0  0  0  0
    2.4528    0.2870    0.0000 C   0  0  0  0  0  0  0  0  0
    3.1673    0.6995    0.0000 N   0  0  0  0  0  0  0  0  0
    3.8818    0.2870    0.0000 C   0  0  0  0  0  0  0  0  0
    3.8818   -0.5380    0.0000 C   0  0  0  0  0  0  0  0  0
    3.1673   -0.9505    0.0000 C   0  0  0  0  0  0  0  0  0
    3.1673    1.5245    0.0000 C   0  0  0  0  0  0  0  0  0
    3.8818    1.9370    0.0000 C   0  0  0  0  0  0  0  0  0
    3.8818    2.7620    0.0000 C   0  0  0  0  0  0  0  0  0
    1.7384    0.6995    0.0000 C   0  0  0  0  0  0  0  0  0
    1.0239    0.2870    0.0000 C   0  0  0  0  0  0  0  0  0
    0.3094    0.6995    0.0000 C   0  0  0  0  0  0  0  0  0
   -0.4050    0.2870    0.0000 N   0  0  0  0  0  0  0  0  0
   -0.4050   -0.5380    0.0000 C   0  0  0  0  0  0  0  0  0
   -1.1195   -0.9505    0.0000 N   0  0  0  0  0  0  0  0  0
  1  2  4  0  0  0  0
  1 17  4  0  0  0  0
  2  3  1  0  0  0  0
  2 14  4  0  0  0  0
  3  4  1  0  0  0  0
  4  5  1  0  0  0  0
  4  9  1  0  0  0  0
  5  6  1  0  0  0  0
  5 13  1  0  0  0  0
  6  7  1  0  0  0  0
  6 10  1  0  0  0  0
  7  8  1  0  0  0  0
  8  9  1  0  0  0  0
 10 11  1  0  0  0  0
 11 12  1  0  0  0  0
 13 14  1  0  0  0  0
 14 15  4  0  0  0  0
 15 16  4  0  0  0  0
 16 17  4  0  0  0  0
 17 18  1  0  0  0  0
M  END
>  <Name_Molregno>
259724

>  <5-HT1A>
5

>  <5-HT1B>
5

>  <5-HT1D>
5

>  <5-HT2A>
5

>  <5-HT2C>
5.58

>  <Alpha-1A>
5

>  <Alpha-1B>
5

>  <Alpha-2A>
5

>  <Alpha-2B>
5

>  <Alpha-2C>
5

>  <Beta-1>
5

>  <Beta-2>
5

>  <DOPAMINE D1>
5

>  <DOPAMINE D2>
6.33

>  <DOPAMINE D3>
8.65

>  <DOPAMINE D4>
7.72

>  <DOPAMINE D5>
5

$$$$
262304
  Marvin  02231216192D 0   1.00000     0.00000     0

 24 27  0  0  0  0  0  0  0  0999 V2000
    0.0933   -0.9755    0.0000 Cl  0  0  0  0  0  0  0  0  0
    0.9003   -0.8040    0.0000 C   0  0  0  0  0  0  0  0  0
    1.1553   -0.0194    0.0000 C   0  0  0  0  0  0  0  0  0
    1.9622    0.1522    0.0000 C   0  0  0  0  0  0  0  0  0
    2.5143   -0.4609    0.0000 C   0  0  0  0  0  0  0  0  0
    3.3212   -0.2894    0.0000 N   0  0  0  0  0  0  0  0  0
    3.5762    0.4952    0.0000 C   0  0  0  0  0  0  0  0  0
    4.3831    0.6667    0.0000 C   0  0  0  0  0  0  0  0  0
    4.9352    0.0536    0.0000 N   0  0  0  0  0  0  0  0  0
    4.6802   -0.7310    0.0000 C   0  0  0  0  0  0  0  0  0
    3.8733   -0.9025    0.0000 C   0  0  0  0  0  0  0  0  0
    5.7421    0.2252    0.0000 C   0  0  0  0  0  0  0  0  0
    5.9971    1.0098    0.0000 C   0  0  0  0  0  0  0  0  0
    6.7817    1.2647    0.0000 C   0  0  0  0  0  0  0  0  0
    6.7817    2.0897    0.0000 N   0  0  0  0  0  0  0  0  0
    5.9971    2.3447    0.0000 N   0  0  0  0  0  0  0  0  0
    5.5122    1.6772    0.0000 C   0  0  0  0  0  0  0  0  0
    7.4962    2.5022    0.0000 C   0  0  0  0  0  0  0  0  0
    8.2106    2.0897    0.0000 C   0  0  0  0  0  0  0  0  0
    8.2106    1.2647    0.0000 C   0  0  0  0  0  0  0  0  0
    7.4962    0.8522    0.0000 C   0  0  0  0  0  0  0  0  0
    7.4962    3.3272    0.0000 C   0  0  0  0  0  0  0  0  0
    2.2593   -1.2456    0.0000 C   0  0  0  0  0  0  0  0  0
    1.4523   -1.4171    0.0000 C   0  0  0  0  0  0  0  0  0
  1  2  1  0  0  0  0
  2  3  4  0  0  0  0
  2 24  4  0  0  0  0
  3  4  4  0  0  0  0
  4  5  4  0  0  0  0
  5  6  1  0  0  0  0
  5 23  4  0  0  0  0
  6  7  1  0  0  0  0
  6 11  1  0  0  0  0
  7  8  1  0  0  0  0
  8  9  1  0  0  0  0
  9 10  1  0  0  0  0
  9 12  1  0  0  0  0
 10 11  1  0  0  0  0
 12 13  1  0  0  0  0
 13 14  4  0  0  0  0
 13 17  4  0  0  0  0
 14 15  4  0  0  0  0
 14 21  4  0  0  0  0
 15 16  4  0  0  0  0
 15 18  4  0  0  0  0
 16 17  4  0  0  0  0
 18 19  4  0  0  0  0
 18 22  1  0  0  0  0
 19 20  4  0  0  0  0
 20 21  4  0  0  0  0
 23 24  4  0  0  0  0
M  END
>  <Name_Molregno>
262304

>  <DOPAMINE D2>
5.31

>  <DOPAMINE D3>
5.43

>  <DOPAMINE D4>
8.57

$$$$
262893
  Marvin  02231216192D 0   1.00000     0.00000     0

 25 28  0  0  0  0  0  0  0  0999 V2000
    0.1135   -0.9819    0.0000 Cl  0  0  0  0  0  0  0  0  0
    0.9205   -0.8103    0.0000 C   0  0  0  0  0  0  0  0  0
    1.1754   -0.0257    0.0000 C   0  0  0  0  0  0  0  0  0
    1.9824    0.1458    0.0000 C   0  0  0  0  0  0  0  0  0
    2.5344   -0.4673    0.0000 C   0  0  0  0  0  0  0  0  0
    3.3414   -0.2958    0.0000 N   0  0  0  0  0  0  0  0  0
    3.5964    0.4889    0.0000 C   0  0  0  0  0  0  0  0  0
    4.4033    0.6604    0.0000 C   0  0  0  0  0  0  0  0  0
    4.9554    0.0473    0.0000 N   0  0  0  0  0  0  0  0  0
    4.7004   -0.7373    0.0000 C   0  0  0  0  0  0  0  0  0
    3.8935   -0.9089    0.0000 C   0  0  0  0  0  0  0  0  0
    5.7623    0.2188    0.0000 C   0  0  0  0  0  0  0  0  0
    6.0173    1.0034    0.0000 C   0  0  0  0  0  0  0  0  0
    6.8019    1.2584    0.0000 C   0  0  0  0  0  0  0  0  0
    6.8019    2.0834    0.0000 N   0  0  0  0  0  0  0  0  0
    6.0173    2.3383    0.0000 N   0  0  0  0  0  0  0  0  0
    5.5324    1.6709    0.0000 C   0  0  0  0  0  0  0  0  0
    7.5164    2.4959    0.0000 C   0  0  0  0  0  0  0  0  0
    8.2308    2.0834    0.0000 C   0  0  0  0  0  0  0  0  0
    8.2308    1.2584    0.0000 C   0  0  0  0  0  0  0  0  0
    7.5164    0.8459    0.0000 C   0  0  0  0  0  0  0  0  0
    7.5164    3.3209    0.0000 C   0  0  0  0  0  0  0  0  0
    7.5164    4.1459    0.0000 C   0  0  0  0  0  0  0  0  0
    2.2795   -1.2519    0.0000 C   0  0  0  0  0  0  0  0  0
    1.4725   -1.4234    0.0000 C   0  0  0  0  0  0  0  0  0
  1  2  1  0  0  0  0
  2  3  4  0  0  0  0
  2 25  4  0  0  0  0
  3  4  4  0  0  0  0
  4  5  4  0  0  0  0
  5  6  1  0  0  0  0
  5 24  4  0  0  0  0
  6  7  1  0  0  0  0
  6 11  1  0  0  0  0
  7  8  1  0  0  0  0
  8  9  1  0  0  0  0
  9 10  1  0  0  0  0
  9 12  1  0  0  0  0
 10 11  1  0  0  0  0
 12 13  1  0  0  0  0
 13 14  4  0  0  0  0
 13 17  4  0  0  0  0
 14 15  4  0  0  0  0
 14 21  4  0  0  0  0
 15 16  4  0  0  0  0
 15 18  4  0  0  0  0
 16 17  4  0  0  0  0
 18 19  4  0  0  0  0
 18 22  1  0  0  0  0
 19 20  4  0  0  0  0
 20 21  4  0  0  0  0
 22 23  3  0  0  0  0
 24 25  4  0  0  0  0
M  END
>  <Name_Molregno>
262893

>  <DOPAMINE D2>
5.43

>  <DOPAMINE D3>
5.34

>  <DOPAMINE D4>
8.91

$$$$
262985
  Marvin  02231216192D 0   1.00000     0.00000     0

 25 28  0  0  0  0  0  0  0  0999 V2000
    0.1204   -2.0800    0.0000 Cl  0  0  0  0  0  0  0  0  0
    0.9274   -1.9085    0.0000 C   0  0  0  0  0  0  0  0  0
    1.1824   -1.1239    0.0000 C   0  0  0  0  0  0  0  0  0
    1.9893   -0.9523    0.0000 C   0  0  0  0  0  0  0  0  0
    2.5414   -1.5654    0.0000 C   0  0  0  0  0  0  0  0  0
    3.3483   -1.3939    0.0000 N   0  0  0  0  0  0  0  0  0
    3.6033   -0.6093    0.0000 C   0  0  0  0  0  0  0  0  0
    4.4102   -0.4378    0.0000 C   0  0  0  0  0  0  0  0  0
    4.9623   -1.0509    0.0000 N   0  0  0  0  0  0  0  0  0
    4.7073   -1.8355    0.0000 C   0  0  0  0  0  0  0  0  0
    3.9004   -2.0070    0.0000 C   0  0  0  0  0  0  0  0  0
    5.7692   -0.8793    0.0000 C   0  0  0  0  0  0  0  0  0
    6.0242   -0.0947    0.0000 C   0  0  0  0  0  0  0  0  0
    6.8088    0.1602    0.0000 C   0  0  0  0  0  0  0  0  0
    6.8088    0.9852    0.0000 N   0  0  0  0  0  0  0  0  0
    6.0242    1.2402    0.0000 N   0  0  0  0  0  0  0  0  0
    5.5393    0.5727    0.0000 C   0  0  0  0  0  0  0  0  0
    7.5233    1.3977    0.0000 C   0  0  0  0  0  0  0  0  0
    8.2377    0.9852    0.0000 C   0  0  0  0  0  0  0  0  0
    8.2377    0.1602    0.0000 C   0  0  0  0  0  0  0  0  0
    7.5233   -0.2523    0.0000 C   0  0  0  0  0  0  0  0  0
    8.9522    1.3977    0.0000 C   0  0  0  0  0  0  0  0  0
    8.9522    2.2227    0.0000 O   0  0  0  0  0  0  0  0  0
    2.2864   -2.3501    0.0000 C   0  0  0  0  0  0  0  0  0
    1.4794   -2.5216    0.0000 C   0  0  0  0  0  0  0  0  0
  1  2  1  0  0  0  0
  2  3  4  0  0  0  0
  2 25  4  0  0  0  0
  3  4  4  0  0  0  0
  4  5  4  0  0  0  0
  5  6  1  0  0  0  0
  5 24  4  0  0  0  0
  6  7  1  0  0  0  0
  6 11  1  0  0  0  0
  7  8  1  0  0  0  0
  8  9  1  0  0  0  0
  9 10  1  0  0  0  0
  9 12  1  0  0  0  0
 10 11  1  0  0  0  0
 12 13  1  0  0  0  0
 13 14  4  0  0  0  0
 13 17  4  0  0  0  0
 14 15  4  0  0  0  0
 14 21  4  0  0  0  0
 15 16  4  0  0  0  0
 15 18  4  0  0  0  0
 16 17  4  0  0  0  0
 18 19  4  0  0  0  0
 19 20  4  0  0  0  0
 19 22  1  0  0  0  0
 20 21  4  0  0  0  0
 22 23  1  0  0  0  0
 24 25  4  0  0  0  0
M  END
>  <Name_Molregno>
262985

>  <DOPAMINE D2>
4.56

>  <DOPAMINE D3>
5.59

>  <DOPAMINE D4>
7.71

$$$$
268270
  Marvin  02231216192D 0   1.00000     0.00000     0

 32 36  0  0  1  0  0  0  0  0999 V2000
    7.4229   -1.5379    0.0000 Cl  0  0  0  0  0  0  0  0  0
    6.5982   -1.5154    0.0000 C   0  0  0  0  0  0  0  0  0
    6.1664   -2.2184    0.0000 C   0  0  0  0  0  0  0  0  0
    5.3417   -2.1959    0.0000 C   0  0  0  0  0  0  0  0  0
    4.9099   -2.8989    0.0000 C   0  0  0  0  0  0  0  0  0
    4.0852   -2.8764    0.0000 N   0  0  0  0  0  0  0  0  0
    3.6534   -3.5794    0.0000 C   0  0  0  0  0  0  0  0  0
    2.8287   -3.5569    0.0000 C   0  0  0  0  0  0  0  0  0
    2.4358   -2.8315    0.0000 N   0  0  0  0  0  0  0  0  0
    2.8676   -2.1285    0.0000 C   0  0  0  0  0  0  0  0  0
    3.6923   -2.1510    0.0000 C   0  0  0  0  0  0  0  0  0
    1.6111   -2.8090    0.0000 C   0  0  0  0  0  0  0  0  0
    1.2735   -2.0562    0.0000 C   0  0  0  0  0  0  0  0  0
    0.4745   -1.8508    0.0000 C   0  0  0  0  0  0  0  0  0
   -0.1843   -2.3474    0.0000 C   0  0  0  0  0  0  0  0  0
   -0.2068   -3.1721    0.0000 C   0  0  0  0  0  0  0  0  0
    0.4240   -3.7039    0.0000 N   0  0  0  0  0  0  0  0  0
    1.2330   -3.5423    0.0000 C   0  0  0  0  0  0  0  0  0
    1.7296   -4.2011    0.0000 O   0  0  0  0  0  0  0  0  0
    0.1132   -4.4681    0.0000 C   0  0  0  0  0  0  0  0  0
   -0.7097   -4.4087    0.0000 C   0  0  0  0  0  0  0  0  0
   -0.9074   -3.6077    0.0000 C   0  0  0  0  0  0  0  0  0
   -1.6349   -3.2187    0.0000 C   0  0  0  0  0  0  0  0  0
   -1.6618   -2.3942    0.0000 C   0  0  0  0  0  0  0  0  0
   -0.9612   -1.9586    0.0000 C   0  0  0  0  0  0  0  0  0
    0.8366   -4.8647    0.0000 C   0  0  0  0  0  0  0  0  0
    0.1487   -5.2923    0.0000 C   0  0  0  0  0  0  0  0  0
    4.9488   -1.4705    0.0000 C   0  0  0  0  0  0  0  0  0
    4.1241   -1.4480    0.0000 O   0  0  0  0  0  0  0  0  0
    3.7312   -0.7226    0.0000 C   0  0  0  0  0  0  0  0  0
    5.3806   -0.7675    0.0000 C   0  0  0  0  0  0  0  0  0
    6.2053   -0.7900    0.0000 C   0  0  0  0  0  0  0  0  0
  1  2  1  0  0  0  0
  2  3  4  0  0  0  0
  2 32  4  0  0  0  0
  3  4  4  0  0  0  0
  4  5  1  0  0  0  0
  4 28  4  0  0  0  0
  5  6  1  0  0  0  0
  6  7  1  0  0  0  0
  6 11  1  0  0  0  0
  7  8  1  0  0  0  0
  8  9  1  0  0  0  0
  9 10  1  0  0  0  0
  9 12  1  0  0  0  0
 10 11  1  0  0  0  0
 12 13  1  0  0  0  0
 12 18  1  0  0  0  0
 13 14  1  0  0  0  0
 14 15  1  0  0  0  0
 15 16  4  0  0  0  0
 15 25  4  0  0  0  0
 16 17  1  0  0  0  0
 16 22  4  0  0  0  0
 17 18  1  0  0  0  0
 17 20  1  0  0  0  0
 18 19  2  0  0  0  0
 20 21  1  0  0  0  0
 20 26  1  0  0  0  0
 20 27  1  0  0  0  0
 21 22  1  0  0  0  0
 22 23  4  0  0  0  0
 23 24  4  0  0  0  0
 24 25  4  0  0  0  0
 28 29  1  0  0  0  0
 28 31  4  0  0  0  0
 29 30  1  0  0  0  0
 31 32  4  0  0  0  0
M  END
>  <Name_Molregno>
268270

>  <DOPAMINE D4>
7.54

$$$$
268271
  Marvin  02231216192D 0   1.00000     0.00000     0

 32 36  0  0  1  0  0  0  0  0999 V2000
   -2.2180    1.3432    0.0000 O   0  0  0  0  0  0  0  0  0
   -2.6109    2.0687    0.0000 C   0  0  0  0  0  0  0  0  0
   -1.3933    1.3207    0.0000 C   0  0  0  0  0  0  0  0  0
   -0.9615    2.0237    0.0000 C   0  0  0  0  0  0  0  0  0
   -0.1368    2.0012    0.0000 C   0  0  0  0  0  0  0  0  0
    0.2561    1.2758    0.0000 C   0  0  0  0  0  0  0  0  0
   -0.1757    0.5728    0.0000 C   0  0  0  0  0  0  0  0  0
   -1.0004    0.5953    0.0000 C   0  0  0  0  0  0  0  0  0
   -1.4322   -0.1077    0.0000 C   0  0  0  0  0  0  0  0  0
   -2.2569   -0.0852    0.0000 N   0  0  0  0  0  0  0  0  0
   -2.6887   -0.7882    0.0000 C   0  0  0  0  0  0  0  0  0
   -3.5134   -0.7657    0.0000 C   0  0  0  0  0  0  0  0  0
   -3.9063   -0.0403    0.0000 N   0  0  0  0  0  0  0  0  0
   -3.4745    0.6627    0.0000 C   0  0  0  0  0  0  0  0  0
   -2.6498    0.6402    0.0000 C   0  0  0  0  0  0  0  0  0
   -4.7310   -0.0178    0.0000 C   0  0  0  0  0  0  0  0  0
   -5.0686    0.7350    0.0000 C   0  0  0  0  0  0  0  0  0
   -5.8676    0.9404    0.0000 C   0  0  0  0  0  0  0  0  0
   -6.5264    0.4438    0.0000 C   0  0  0  0  0  0  0  0  0
   -6.5489   -0.3809    0.0000 C   0  0  0  0  0  0  0  0  0
   -5.9181   -0.9127    0.0000 N   0  0  0  0  0  0  0  0  0
   -5.1091   -0.7511    0.0000 C   0  0  0  0  0  0  0  0  0
   -4.6125   -1.4098    0.0000 O   0  0  0  0  0  0  0  0  0
   -6.2289   -1.6769    0.0000 C   0  0  0  0  0  0  0  0  0
   -7.0518   -1.6174    0.0000 C   0  0  0  0  0  0  0  0  0
   -7.2495   -0.8165    0.0000 C   0  0  0  0  0  0  0  0  0
   -7.9770   -0.4275    0.0000 C   0  0  0  0  0  0  0  0  0
   -8.0039    0.3971    0.0000 C   0  0  0  0  0  0  0  0  0
   -7.3033    0.8327    0.0000 C   0  0  0  0  0  0  0  0  0
   -5.5055   -2.0735    0.0000 C   0  0  0  0  0  0  0  0  0
   -6.1934   -2.5011    0.0000 C   0  0  0  0  0  0  0  0  0
    1.0808    1.2533    0.0000 C   0  0  0  0  0  0  0  0  0
  1  2  1  0  0  0  0
  1  3  1  0  0  0  0
  3  4  4  0  0  0  0
  3  8  4  0  0  0  0
  4  5  4  0  0  0  0
  5  6  4  0  0  0  0
  6  7  4  0  0  0  0
  6 32  1  0  0  0  0
  7  8  4  0  0  0  0
  8  9  1  0  0  0  0
  9 10  1  0  0  0  0
 10 11  1  0  0  0  0
 10 15  1  0  0  0  0
 11 12  1  0  0  0  0
 12 13  1  0  0  0  0
 13 14  1  0  0  0  0
 13 16  1  0  0  0  0
 14 15  1  0  0  0  0
 16 17  1  0  0  0  0
 16 22  1  0  0  0  0
 17 18  1  0  0  0  0
 18 19  1  0  0  0  0
 19 20  4  0  0  0  0
 19 29  4  0  0  0  0
 20 21  1  0  0  0  0
 20 26  4  0  0  0  0
 21 22  1  0  0  0  0
 21 24  1  0  0  0  0
 22 23  2  0  0  0  0
 24 25  1  0  0  0  0
 24 30  1  0  0  0  0
 24 31  1  0  0  0  0
 25 26  1  0  0  0  0
 26 27  4  0  0  0  0
 27 28  4  0  0  0  0
 28 29  4  0  0  0  0
M  END
>  <Name_Molregno>
268271

>  <DOPAMINE D4>
7.19

$$$$
268300
  Marvin  02231216192D 0   1.00000     0.00000     0

 29 33  0  0  1  0  0  0  0  0999 V2000
    0.6390    0.4872    0.0000 O   0  0  0  0  0  0  0  0  0
    0.1423   -0.1716    0.0000 C   0  0  0  0  0  0  0  0  0
   -0.6667   -0.0100    0.0000 N   0  0  0  0  0  0  0  0  0
   -1.2974   -0.5418    0.0000 C   0  0  0  0  0  0  0  0  0
   -1.9981   -0.1062    0.0000 C   0  0  0  0  0  0  0  0  0
   -1.8003    0.6947    0.0000 C   0  0  0  0  0  0  0  0  0
   -0.9775    0.7542    0.0000 C   0  0  0  0  0  0  0  0  0
   -0.5419    1.4548    0.0000 C   0  0  0  0  0  0  0  0  0
   -2.7256   -0.4952    0.0000 C   0  0  0  0  0  0  0  0  0
   -2.7525   -1.3198    0.0000 C   0  0  0  0  0  0  0  0  0
   -2.0519   -1.7553    0.0000 C   0  0  0  0  0  0  0  0  0
   -1.2750   -1.3665    0.0000 C   0  0  0  0  0  0  0  0  0
   -0.6162   -1.8631    0.0000 C   0  0  0  0  0  0  0  0  0
    0.1828   -1.6577    0.0000 C   0  0  0  0  0  0  0  0  0
    0.5204   -0.9049    0.0000 C   0  0  0  0  0  0  0  0  0
    1.3451   -0.8824    0.0000 N   0  0  0  0  0  0  0  0  0
    1.7380   -0.1570    0.0000 C   0  0  0  0  0  0  0  0  0
    2.5627   -0.1345    0.0000 C   0  0  0  0  0  0  0  0  0
    2.9945   -0.8375    0.0000 N   0  0  0  0  0  0  0  0  0
    2.6016   -1.5629    0.0000 C   0  0  0  0  0  0  0  0  0
    1.7769   -1.5854    0.0000 C   0  0  0  0  0  0  0  0  0
    3.8192   -0.8150    0.0000 C   0  0  0  0  0  0  0  0  0
    4.2510   -1.5180    0.0000 C   0  0  0  0  0  0  0  0  0
    5.0757   -1.4955    0.0000 C   0  0  0  0  0  0  0  0  0
    5.5075   -2.1985    0.0000 C   0  0  0  0  0  0  0  0  0
    5.1146   -2.9239    0.0000 C   0  0  0  0  0  0  0  0  0
    4.2899   -2.9464    0.0000 C   0  0  0  0  0  0  0  0  0
    3.8581   -2.2434    0.0000 C   0  0  0  0  0  0  0  0  0
    5.5464   -3.6269    0.0000 C   0  0  0  0  0  0  0  0  0
  1  2  2  0  0  0  0
  2  3  1  0  0  0  0
  2 15  1  0  0  0  0
  3  4  1  0  0  0  0
  3  7  1  0  0  0  0
  4  5  4  0  0  0  0
  4 12  4  0  0  0  0
  5  6  1  0  0  0  0
  5  9  4  0  0  0  0
  6  7  1  0  0  0  0
  7  8  1  0  0  0  0
  9 10  4  0  0  0  0
 10 11  4  0  0  0  0
 11 12  4  0  0  0  0
 12 13  1  0  0  0  0
 13 14  1  0  0  0  0
 14 15  1  0  0  0  0
 15 16  1  0  0  0  0
 16 17  1  0  0  0  0
 16 21  1  0  0  0  0
 17 18  1  0  0  0  0
 18 19  1  0  0  0  0
 19 20  1  0  0  0  0
 19 22  1  0  0  0  0
 20 21  1  0  0  0  0
 22 23  1  0  0  0  0
 23 24  4  0  0  0  0
 23 28  4  0  0  0  0
 24 25  4  0  0  0  0
 25 26  4  0  0  0  0
 26 27  4  0  0  0  0
 26 29  1  0  0  0  0
 27 28  4  0  0  0  0
M  END
>  <Name_Molregno>
268300

>  <DOPAMINE D4>
8

$$$$
268339
  Marvin  02231216192D 0   1.00000     0.00000     0

 29 33  0  0  1  0  0  0  0  0999 V2000
    9.2370    2.8308    0.0000 Cl  0  0  0  0  0  0  0  0  0
    8.8052    2.1278    0.0000 C   0  0  0  0  0  0  0  0  0
    9.1981    1.4024    0.0000 C   0  0  0  0  0  0  0  0  0
    8.7663    0.6994    0.0000 C   0  0  0  0  0  0  0  0  0
    7.9416    0.7219    0.0000 C   0  0  0  0  0  0  0  0  0
    7.5487    1.4473    0.0000 C   0  0  0  0  0  0  0  0  0
    7.9805    2.1503    0.0000 C   0  0  0  0  0  0  0  0  0
    7.5098    0.0189    0.0000 C   0  0  0  0  0  0  0  0  0
    6.6851    0.0414    0.0000 N   0  0  0  0  0  0  0  0  0
    6.2533   -0.6616    0.0000 C   0  0  0  0  0  0  0  0  0
    5.4286   -0.6391    0.0000 C   0  0  0  0  0  0  0  0  0
    5.0357    0.0863    0.0000 N   0  0  0  0  0  0  0  0  0
    5.4675    0.7893    0.0000 C   0  0  0  0  0  0  0  0  0
    6.2922    0.7668    0.0000 C   0  0  0  0  0  0  0  0  0
    4.2110    0.1088    0.0000 C   0  0  0  0  0  0  0  0  0
    3.8734    0.8616    0.0000 C   0  0  0  0  0  0  0  0  0
    3.0744    1.0670    0.0000 C   0  0  0  0  0  0  0  0  0
    2.4156    0.5704    0.0000 C   0  0  0  0  0  0  0  0  0
    2.3931   -0.2543    0.0000 C   0  0  0  0  0  0  0  0  0
    3.0239   -0.7861    0.0000 N   0  0  0  0  0  0  0  0  0
    3.8329   -0.6245    0.0000 C   0  0  0  0  0  0  0  0  0
    4.3295   -1.2833    0.0000 O   0  0  0  0  0  0  0  0  0
    2.7131   -1.5503    0.0000 C   0  0  0  0  0  0  0  0  0
    1.8902   -1.4908    0.0000 C   0  0  0  0  0  0  0  0  0
    1.6925   -0.6899    0.0000 C   0  0  0  0  0  0  0  0  0
    0.9650   -0.3009    0.0000 C   0  0  0  0  0  0  0  0  0
    0.9381    0.5237    0.0000 C   0  0  0  0  0  0  0  0  0
    1.6387    0.9592    0.0000 C   0  0  0  0  0  0  0  0  0
    3.1487   -2.2509    0.0000 C   0  0  0  0  0  0  0  0  0
  1  2  1  0  0  0  0
  2  3  4  0  0  0  0
  2  7  4  0  0  0  0
  3  4  4  0  0  0  0
  4  5  4  0  0  0  0
  5  6  4  0  0  0  0
  5  8  1  0  0  0  0
  6  7  4  0  0  0  0
  8  9  1  0  0  0  0
  9 10  1  0  0  0  0
  9 14  1  0  0  0  0
 10 11  1  0  0  0  0
 11 12  1  0  0  0  0
 12 13  1  0  0  0  0
 12 15  1  0  0  0  0
 13 14  1  0  0  0  0
 15 16  1  0  0  0  0
 15 21  1  0  0  0  0
 16 17  1  0  0  0  0
 17 18  1  0  0  0  0
 18 19  4  0  0  0  0
 18 28  4  0  0  0  0
 19 20  1  0  0  0  0
 19 25  4  0  0  0  0
 20 21  1  0  0  0  0
 20 23  1  0  0  0  0
 21 22  2  0  0  0  0
 23 24  1  0  0  0  0
 23 29  1  0  0  0  0
 24 25  1  0  0  0  0
 25 26  4  0  0  0  0
 26 27  4  0  0  0  0
 27 28  4  0  0  0  0
M  END
>  <Name_Molregno>
268339

>  <DOPAMINE D4>
8.05

$$$$
268371
  Marvin  02231216192D 0   1.00000     0.00000     0

 30 34  0  0  1  0  0  0  0  0999 V2000
    0.4044    0.2521    0.0000 O   0  0  0  0  0  0  0  0  0
   -0.0923   -0.4066    0.0000 C   0  0  0  0  0  0  0  0  0
   -0.9013   -0.2450    0.0000 N   0  0  0  0  0  0  0  0  0
   -1.5320   -0.7768    0.0000 C   0  0  0  0  0  0  0  0  0
   -2.2327   -0.3412    0.0000 C   0  0  0  0  0  0  0  0  0
   -2.0349    0.4597    0.0000 C   0  0  0  0  0  0  0  0  0
   -1.2121    0.5192    0.0000 C   0  0  0  0  0  0  0  0  0
   -0.4887    0.9158    0.0000 C   0  0  0  0  0  0  0  0  0
   -1.1766    1.3434    0.0000 C   0  0  0  0  0  0  0  0  0
   -2.9602   -0.7302    0.0000 C   0  0  0  0  0  0  0  0  0
   -2.9871   -1.5548    0.0000 C   0  0  0  0  0  0  0  0  0
   -2.2865   -1.9903    0.0000 C   0  0  0  0  0  0  0  0  0
   -1.5096   -1.6015    0.0000 C   0  0  0  0  0  0  0  0  0
   -0.8508   -2.0981    0.0000 C   0  0  0  0  0  0  0  0  0
   -0.0518   -1.8927    0.0000 C   0  0  0  0  0  0  0  0  0
    0.2858   -1.1399    0.0000 C   0  0  0  0  0  0  0  0  0
    1.1105   -1.1174    0.0000 N   0  0  0  0  0  0  0  0  0
    1.5034   -0.3920    0.0000 C   0  0  0  0  0  0  0  0  0
    2.3281   -0.3695    0.0000 C   0  0  0  0  0  0  0  0  0
    2.7599   -1.0725    0.0000 N   0  0  0  0  0  0  0  0  0
    2.3670   -1.7979    0.0000 C   0  0  0  0  0  0  0  0  0
    1.5423   -1.8204    0.0000 C   0  0  0  0  0  0  0  0  0
    3.5846   -1.0500    0.0000 C   0  0  0  0  0  0  0  0  0
    4.0164   -1.7530    0.0000 C   0  0  0  0  0  0  0  0  0
    4.8411   -1.7305    0.0000 C   0  0  0  0  0  0  0  0  0
    5.2729   -2.4335    0.0000 C   0  0  0  0  0  0  0  0  0
    4.8800   -3.1589    0.0000 C   0  0  0  0  0  0  0  0  0
    4.0553   -3.1814    0.0000 C   0  0  0  0  0  0  0  0  0
    3.6235   -2.4784    0.0000 C   0  0  0  0  0  0  0  0  0
    5.3118   -3.8619    0.0000 C   0  0  0  0  0  0  0  0  0
  1  2  2  0  0  0  0
  2  3  1  0  0  0  0
  2 16  1  0  0  0  0
  3  4  1  0  0  0  0
  3  7  1  0  0  0  0
  4  5  4  0  0  0  0
  4 13  4  0  0  0  0
  5  6  1  0  0  0  0
  5 10  4  0  0  0  0
  6  7  1  0  0  0  0
  7  8  1  0  0  0  0
  7  9  1  0  0  0  0
 10 11  4  0  0  0  0
 11 12  4  0  0  0  0
 12 13  4  0  0  0  0
 13 14  1  0  0  0  0
 14 15  1  0  0  0  0
 15 16  1  0  0  0  0
 16 17  1  0  0  0  0
 17 18  1  0  0  0  0
 17 22  1  0  0  0  0
 18 19  1  0  0  0  0
 19 20  1  0  0  0  0
 20 21  1  0  0  0  0
 20 23  1  0  0  0  0
 21 22  1  0  0  0  0
 23 24  1  0  0  0  0
 24 25  4  0  0  0  0
 24 29  4  0  0  0  0
 25 26  4  0  0  0  0
 26 27  4  0  0  0  0
 27 28  4  0  0  0  0
 27 30  1  0  0  0  0
 28 29  4  0  0  0  0
M  END
>  <Name_Molregno>
268371

>  <DOPAMINE D4>
7.92

$$$$
268372
  Marvin  02231216192D 0   1.00000     0.00000     0

 30 34  0  0  1  0  0  0  0  0999 V2000
    9.3917    2.9229    0.0000 Cl  0  0  0  0  0  0  0  0  0
    8.9599    2.2199    0.0000 C   0  0  0  0  0  0  0  0  0
    9.3528    1.4945    0.0000 C   0  0  0  0  0  0  0  0  0
    8.9210    0.7915    0.0000 C   0  0  0  0  0  0  0  0  0
    8.0963    0.8140    0.0000 C   0  0  0  0  0  0  0  0  0
    7.7034    1.5394    0.0000 C   0  0  0  0  0  0  0  0  0
    8.1352    2.2424    0.0000 C   0  0  0  0  0  0  0  0  0
    7.6645    0.1110    0.0000 C   0  0  0  0  0  0  0  0  0
    6.8398    0.1335    0.0000 N   0  0  0  0  0  0  0  0  0
    6.4080   -0.5695    0.0000 C   0  0  0  0  0  0  0  0  0
    5.5833   -0.5470    0.0000 C   0  0  0  0  0  0  0  0  0
    5.1904    0.1784    0.0000 N   0  0  0  0  0  0  0  0  0
    5.6222    0.8814    0.0000 C   0  0  0  0  0  0  0  0  0
    6.4469    0.8589    0.0000 C   0  0  0  0  0  0  0  0  0
    4.3657    0.2009    0.0000 C   0  0  0  0  0  0  0  0  0
    4.0281    0.9536    0.0000 C   0  0  0  0  0  0  0  0  0
    3.2291    1.1591    0.0000 C   0  0  0  0  0  0  0  0  0
    2.5703    0.6624    0.0000 C   0  0  0  0  0  0  0  0  0
    2.5479   -0.1622    0.0000 C   0  0  0  0  0  0  0  0  0
    3.1786   -0.6940    0.0000 N   0  0  0  0  0  0  0  0  0
    3.9877   -0.5324    0.0000 C   0  0  0  0  0  0  0  0  0
    4.4843   -1.1912    0.0000 O   0  0  0  0  0  0  0  0  0
    2.8678   -1.4582    0.0000 C   0  0  0  0  0  0  0  0  0
    2.0450   -1.3988    0.0000 C   0  0  0  0  0  0  0  0  0
    1.8472   -0.5978    0.0000 C   0  0  0  0  0  0  0  0  0
    1.1197   -0.2088    0.0000 C   0  0  0  0  0  0  0  0  0
    1.0928    0.6157    0.0000 C   0  0  0  0  0  0  0  0  0
    1.7934    1.0513    0.0000 C   0  0  0  0  0  0  0  0  0
    3.5912   -1.8548    0.0000 C   0  0  0  0  0  0  0  0  0
    2.9033   -2.2825    0.0000 C   0  0  0  0  0  0  0  0  0
  1  2  1  0  0  0  0
  2  3  4  0  0  0  0
  2  7  4  0  0  0  0
  3  4  4  0  0  0  0
  4  5  4  0  0  0  0
  5  6  4  0  0  0  0
  5  8  1  0  0  0  0
  6  7  4  0  0  0  0
  8  9  1  0  0  0  0
  9 10  1  0  0  0  0
  9 14  1  0  0  0  0
 10 11  1  0  0  0  0
 11 12  1  0  0  0  0
 12 13  1  0  0  0  0
 12 15  1  0  0  0  0
 13 14  1  0  0  0  0
 15 16  1  0  0  0  0
 15 21  1  0  0  0  0
 16 17  1  0  0  0  0
 17 18  1  0  0  0  0
 18 19  4  0  0  0  0
 18 28  4  0  0  0  0
 19 20  1  0  0  0  0
 19 25  4  0  0  0  0
 20 21  1  0  0  0  0
 20 23  1  0  0  0  0
 21 22  2  0  0  0  0
 23 24  1  0  0  0  0
 23 29  1  0  0  0  0
 23 30  1  0  0  0  0
 24 25  1  0  0  0  0
 25 26  4  0  0  0  0
 26 27  4  0  0  0  0
 27 28  4  0  0  0  0
M  END
>  <Name_Molregno>
268372

>  <DOPAMINE D4>
7.72

$$$$
268433
  Marvin  02231216192D 0   1.00000     0.00000     0

 28 32  0  0  1  0  0  0  0  0999 V2000
    9.0792    2.6506    0.0000 Cl  0  0  0  0  0  0  0  0  0
    8.6474    1.9476    0.0000 C   0  0  0  0  0  0  0  0  0
    9.0403    1.2222    0.0000 C   0  0  0  0  0  0  0  0  0
    8.6085    0.5192    0.0000 C   0  0  0  0  0  0  0  0  0
    7.7838    0.5417    0.0000 C   0  0  0  0  0  0  0  0  0
    7.3909    1.2671    0.0000 C   0  0  0  0  0  0  0  0  0
    7.8227    1.9701    0.0000 C   0  0  0  0  0  0  0  0  0
    7.3519   -0.1613    0.0000 C   0  0  0  0  0  0  0  0  0
    6.5273   -0.1388    0.0000 N   0  0  0  0  0  0  0  0  0
    6.0954   -0.8418    0.0000 C   0  0  0  0  0  0  0  0  0
    5.2708   -0.8193    0.0000 C   0  0  0  0  0  0  0  0  0
    4.8779   -0.0939    0.0000 N   0  0  0  0  0  0  0  0  0
    5.3097    0.6091    0.0000 C   0  0  0  0  0  0  0  0  0
    6.1344    0.5866    0.0000 C   0  0  0  0  0  0  0  0  0
    4.0532   -0.0714    0.0000 C   0  0  0  0  0  0  0  0  0
    3.7156    0.6814    0.0000 C   0  0  0  0  0  0  0  0  0
    2.9166    0.8868    0.0000 C   0  0  0  0  0  0  0  0  0
    2.2578    0.3902    0.0000 C   0  0  0  0  0  0  0  0  0
    2.2353   -0.4345    0.0000 C   0  0  0  0  0  0  0  0  0
    2.8661   -0.9663    0.0000 N   0  0  0  0  0  0  0  0  0
    2.5553   -1.7305    0.0000 C   0  0  0  0  0  0  0  0  0
    1.7324   -1.6710    0.0000 C   0  0  0  0  0  0  0  0  0
    1.5347   -0.8701    0.0000 C   0  0  0  0  0  0  0  0  0
    0.8071   -0.4811    0.0000 C   0  0  0  0  0  0  0  0  0
    0.7803    0.3435    0.0000 C   0  0  0  0  0  0  0  0  0
    1.4809    0.7791    0.0000 C   0  0  0  0  0  0  0  0  0
    3.6751   -0.8047    0.0000 C   0  0  0  0  0  0  0  0  0
    4.1717   -1.4634    0.0000 O   0  0  0  0  0  0  0  0  0
  1  2  1  0  0  0  0
  2  3  4  0  0  0  0
  2  7  4  0  0  0  0
  3  4  4  0  0  0  0
  4  5  4  0  0  0  0
  5  6  4  0  0  0  0
  5  8  1  0  0  0  0
  6  7  4  0  0  0  0
  8  9  1  0  0  0  0
  9 10  1  0  0  0  0
  9 14  1  0  0  0  0
 10 11  1  0  0  0  0
 11 12  1  0  0  0  0
 12 13  1  0  0  0  0
 12 15  1  0  0  0  0
 13 14  1  0  0  0  0
 15 16  1  0  0  0  0
 15 27  1  0  0  0  0
 16 17  1  0  0  0  0
 17 18  1  0  0  0  0
 18 19  4  0  0  0  0
 18 26  4  0  0  0  0
 19 20  1  0  0  0  0
 19 23  4  0  0  0  0
 20 21  1  0  0  0  0
 20 27  1  0  0  0  0
 21 22  1  0  0  0  0
 22 23  1  0  0  0  0
 23 24  4  0  0  0  0
 24 25  4  0  0  0  0
 25 26  4  0  0  0  0
 27 28  2  0  0  0  0
M  END
>  <Name_Molregno>
268433

>  <DOPAMINE D4>
8.3

$$$$
268434
  Marvin  02231216192D 0   1.00000     0.00000     0

 28 32  0  0  1  0  0  0  0  0999 V2000
    0.6870   -1.8654    0.0000 O   0  0  0  0  0  0  0  0  0
    0.1904   -1.2066    0.0000 C   0  0  0  0  0  0  0  0  0
   -0.6186   -1.3682    0.0000 N   0  0  0  0  0  0  0  0  0
   -0.9295   -2.1324    0.0000 C   0  0  0  0  0  0  0  0  0
   -1.7523   -2.0730    0.0000 C   0  0  0  0  0  0  0  0  0
   -1.9501   -1.2720    0.0000 C   0  0  0  0  0  0  0  0  0
   -1.2494   -0.8364    0.0000 C   0  0  0  0  0  0  0  0  0
   -1.2269   -0.0117    0.0000 C   0  0  0  0  0  0  0  0  0
   -0.5682    0.4849    0.0000 C   0  0  0  0  0  0  0  0  0
    0.2309    0.2795    0.0000 C   0  0  0  0  0  0  0  0  0
    0.5684   -0.4733    0.0000 C   0  0  0  0  0  0  0  0  0
    1.3931   -0.4958    0.0000 N   0  0  0  0  0  0  0  0  0
    1.8249    0.2072    0.0000 C   0  0  0  0  0  0  0  0  0
    2.6496    0.1847    0.0000 C   0  0  0  0  0  0  0  0  0
    3.0425   -0.5407    0.0000 N   0  0  0  0  0  0  0  0  0
    2.6107   -1.2437    0.0000 C   0  0  0  0  0  0  0  0  0
    1.7860   -1.2212    0.0000 C   0  0  0  0  0  0  0  0  0
    3.8672   -0.5632    0.0000 C   0  0  0  0  0  0  0  0  0
    4.2601   -1.2886    0.0000 C   0  0  0  0  0  0  0  0  0
    5.0848   -1.3111    0.0000 C   0  0  0  0  0  0  0  0  0
    5.4777   -2.0366    0.0000 C   0  0  0  0  0  0  0  0  0
    5.0459   -2.7395    0.0000 C   0  0  0  0  0  0  0  0  0
    4.2212   -2.7171    0.0000 C   0  0  0  0  0  0  0  0  0
    3.8283   -1.9916    0.0000 C   0  0  0  0  0  0  0  0  0
    5.4388   -3.4650    0.0000 C   0  0  0  0  0  0  0  0  0
   -2.0038    0.3771    0.0000 C   0  0  0  0  0  0  0  0  0
   -2.7045   -0.0585    0.0000 C   0  0  0  0  0  0  0  0  0
   -2.6776   -0.8830    0.0000 C   0  0  0  0  0  0  0  0  0
  1  2  2  0  0  0  0
  2  3  1  0  0  0  0
  2 11  1  0  0  0  0
  3  4  1  0  0  0  0
  3  7  1  0  0  0  0
  4  5  1  0  0  0  0
  5  6  1  0  0  0  0
  6  7  4  0  0  0  0
  6 28  4  0  0  0  0
  7  8  4  0  0  0  0
  8  9  1  0  0  0  0
  8 26  4  0  0  0  0
  9 10  1  0  0  0  0
 10 11  1  0  0  0  0
 11 12  1  0  0  0  0
 12 13  1  0  0  0  0
 12 17  1  0  0  0  0
 13 14  1  0  0  0  0
 14 15  1  0  0  0  0
 15 16  1  0  0  0  0
 15 18  1  0  0  0  0
 16 17  1  0  0  0  0
 18 19  1  0  0  0  0
 19 20  4  0  0  0  0
 19 24  4  0  0  0  0
 20 21  4  0  0  0  0
 21 22  4  0  0  0  0
 22 23  4  0  0  0  0
 22 25  1  0  0  0  0
 23 24  4  0  0  0  0
 26 27  4  0  0  0  0
 27 28  4  0  0  0  0
M  END
>  <Name_Molregno>
268434

>  <DOPAMINE D4>
8.4

$$$$
268438
  Marvin  02231216192D 0   1.00000     0.00000     0

 32 36  0  0  1  0  0  0  0  0999 V2000
    0.1584    0.5629    0.0000 O   0  0  0  0  0  0  0  0  0
   -0.2345    1.2883    0.0000 C   0  0  0  0  0  0  0  0  0
   -0.2734   -0.1401    0.0000 C   0  0  0  0  0  0  0  0  0
    0.1195   -0.8655    0.0000 C   0  0  0  0  0  0  0  0  0
   -0.3123   -1.5685    0.0000 C   0  0  0  0  0  0  0  0  0
   -1.1370   -1.5460    0.0000 C   0  0  0  0  0  0  0  0  0
   -1.5299   -0.8206    0.0000 C   0  0  0  0  0  0  0  0  0
   -1.0981   -0.1176    0.0000 C   0  0  0  0  0  0  0  0  0
   -1.4910    0.6078    0.0000 C   0  0  0  0  0  0  0  0  0
   -2.3157    0.6303    0.0000 N   0  0  0  0  0  0  0  0  0
   -2.7475   -0.0727    0.0000 C   0  0  0  0  0  0  0  0  0
   -3.5722   -0.0502    0.0000 C   0  0  0  0  0  0  0  0  0
   -3.9651    0.6752    0.0000 N   0  0  0  0  0  0  0  0  0
   -3.5333    1.3782    0.0000 C   0  0  0  0  0  0  0  0  0
   -2.7086    1.3557    0.0000 C   0  0  0  0  0  0  0  0  0
   -4.7898    0.6977    0.0000 C   0  0  0  0  0  0  0  0  0
   -5.1273    1.4505    0.0000 C   0  0  0  0  0  0  0  0  0
   -5.9263    1.6559    0.0000 C   0  0  0  0  0  0  0  0  0
   -6.5851    1.1593    0.0000 C   0  0  0  0  0  0  0  0  0
   -6.6076    0.3346    0.0000 C   0  0  0  0  0  0  0  0  0
   -5.9768   -0.1972    0.0000 N   0  0  0  0  0  0  0  0  0
   -5.1678   -0.0356    0.0000 C   0  0  0  0  0  0  0  0  0
   -4.6712   -0.6943    0.0000 O   0  0  0  0  0  0  0  0  0
   -6.2877   -0.9614    0.0000 C   0  0  0  0  0  0  0  0  0
   -7.1105   -0.9019    0.0000 C   0  0  0  0  0  0  0  0  0
   -7.3082   -0.1010    0.0000 C   0  0  0  0  0  0  0  0  0
   -8.0358    0.2880    0.0000 C   0  0  0  0  0  0  0  0  0
   -8.0627    1.1126    0.0000 C   0  0  0  0  0  0  0  0  0
   -7.3620    1.5482    0.0000 C   0  0  0  0  0  0  0  0  0
   -5.5642   -1.3580    0.0000 C   0  0  0  0  0  0  0  0  0
   -6.2521   -1.7856    0.0000 C   0  0  0  0  0  0  0  0  0
    0.0806   -2.2939    0.0000 C   0  0  0  0  0  0  0  0  0
  1  2  1  0  0  0  0
  1  3  1  0  0  0  0
  3  4  4  0  0  0  0
  3  8  4  0  0  0  0
  4  5  4  0  0  0  0
  5  6  4  0  0  0  0
  5 32  1  0  0  0  0
  6  7  4  0  0  0  0
  7  8  4  0  0  0  0
  8  9  1  0  0  0  0
  9 10  1  0  0  0  0
 10 11  1  0  0  0  0
 10 15  1  0  0  0  0
 11 12  1  0  0  0  0
 12 13  1  0  0  0  0
 13 14  1  0  0  0  0
 13 16  1  0  0  0  0
 14 15  1  0  0  0  0
 16 17  1  0  0  0  0
 16 22  1  0  0  0  0
 17 18  1  0  0  0  0
 18 19  1  0  0  0  0
 19 20  4  0  0  0  0
 19 29  4  0  0  0  0
 20 21  1  0  0  0  0
 20 26  4  0  0  0  0
 21 22  1  0  0  0  0
 21 24  1  0  0  0  0
 22 23  2  0  0  0  0
 24 25  1  0  0  0  0
 24 30  1  0  0  0  0
 24 31  1  0  0  0  0
 25 26  1  0  0  0  0
 26 27  4  0  0  0  0
 27 28  4  0  0  0  0
 28 29  4  0  0  0  0
M  END
>  <Name_Molregno>
268438

>  <DOPAMINE D4>
7.47

$$$$
273468
  Marvin  02231216192D 0   1.00000     0.00000     0

 15 15  0  0  1  0  0  0  0  0999 V2000
   -0.6964    0.7150    0.0000 N   0  0  0  0  0  0  0  0  0
   -1.4109    1.1275    0.0000 C   0  0  0  0  0  0  0  0  0
   -1.4109    1.9525    0.0000 C   0  0  0  0  0  0  0  0  0
   -2.1254    2.3650    0.0000 C   0  0  0  0  0  0  0  0  0
    0.0180    1.1275    0.0000 C   0  0  0  0  0  0  0  0  0
    0.0180    1.9525    0.0000 C   0  0  0  0  0  0  0  0  0
    0.7325    2.3650    0.0000 C   0  0  0  0  0  0  0  0  0
   -0.6964   -0.1100    0.0000 C   0  0  0  0  0  0  0  0  0
    0.0180   -0.5225    0.0000 C   0  0  0  0  0  0  0  0  0
    0.0180   -1.3475    0.0000 C   0  0  0  0  0  0  0  0  0
   -0.6964   -1.7600    0.0000 C   0  0  0  0  0  0  0  0  0
   -1.4109   -1.3475    0.0000 C   0  0  0  0  0  0  0  0  0
   -1.4109   -0.5225    0.0000 C   0  0  0  0  0  0  0  0  0
   -0.6964   -2.5850    0.0000 C   0  0  0  0  0  0  0  0  0
   -0.6964   -3.4100    0.0000 C   0  0  0  0  0  0  0  0  0
  1  2  1  0  0  0  0
  1  5  1  0  0  0  0
  1  8  1  0  0  0  0
  2  3  1  0  0  0  0
  3  4  1  0  0  0  0
  5  6  1  0  0  0  0
  6  7  1  0  0  0  0
  8  9  1  0  0  0  0
  8 13  1  0  0  0  0
  9 10  1  0  0  0  0
 10 11  1  0  0  0  0
 11 12  2  0  0  0  0
 11 14  1  0  0  0  0
 12 13  1  0  0  0  0
 14 15  3  0  0  0  0
M  END
>  <Name_Molregno>
273468

>  <DOPAMINE D2>
6.59

>  <DOPAMINE D3>
7.24

>  <DOPAMINE D4>
7.66

$$$$
273862
  Marvin  02231216192D 0   1.00000     0.00000     0

 15 15  0  0  1  0  0  0  0  0999 V2000
   -0.6964    0.7150    0.0000 N   0  0  0  0  0  0  0  0  0
   -1.4109    1.1275    0.0000 C   0  0  0  0  0  0  0  0  0
   -1.4109    1.9525    0.0000 C   0  0  0  0  0  0  0  0  0
   -2.1254    2.3650    0.0000 C   0  0  0  0  0  0  0  0  0
    0.0180    1.1275    0.0000 C   0  0  0  0  0  0  0  0  0
    0.0180    1.9525    0.0000 C   0  0  0  0  0  0  0  0  0
    0.7325    2.3650    0.0000 C   0  0  0  0  0  0  0  0  0
   -0.6964   -0.1100    0.0000 C   0  0  0  0  0  0  0  0  0
    0.0180   -0.5225    0.0000 C   0  0  0  0  0  0  0  0  0
    0.0180   -1.3475    0.0000 C   0  0  0  0  0  0  0  0  0
   -0.6964   -1.7600    0.0000 C   0  0  0  0  0  0  0  0  0
   -1.4109   -1.3475    0.0000 C   0  0  0  0  0  0  0  0  0
   -1.4109   -0.5225    0.0000 C   0  0  0  0  0  0  0  0  0
   -0.6964   -2.5850    0.0000 C   0  0  0  0  0  0  0  0  0
   -0.6964   -3.4100    0.0000 N   0  0  0  0  0  0  0  0  0
  1  2  1  0  0  0  0
  1  5  1  0  0  0  0
  1  8  1  0  0  0  0
  2  3  1  0  0  0  0
  3  4  1  0  0  0  0
  5  6  1  0  0  0  0
  6  7  1  0  0  0  0
  8  9  1  0  0  0  0
  8 13  1  0  0  0  0
  9 10  1  0  0  0  0
 10 11  1  0  0  0  0
 11 12  2  0  0  0  0
 11 14  1  0  0  0  0
 12 13  1  0  0  0  0
 14 15  3  0  0  0  0
M  END
>  <Name_Molregno>
273862

>  <DOPAMINE D2>
4.7

>  <DOPAMINE D3>
4.89

>  <DOPAMINE D4>
4.7

$$$$
273894
  Marvin  02231216192D 0   1.00000     0.00000     0

 16 16  0  0  0  0  0  0  0  0999 V2000
    0.7452    1.0311    0.0000 N   0  0  0  0  0  0  0  0  0
    0.0307    1.4436    0.0000 C   0  0  0  0  0  0  0  0  0
    0.0307    2.2686    0.0000 C   0  0  0  0  0  0  0  0  0
   -0.6837    2.6811    0.0000 C   0  0  0  0  0  0  0  0  0
    1.4597    1.4436    0.0000 C   0  0  0  0  0  0  0  0  0
    1.4597    2.2686    0.0000 C   0  0  0  0  0  0  0  0  0
    2.1742    2.6811    0.0000 C   0  0  0  0  0  0  0  0  0
    0.7452    0.2061    0.0000 C   0  0  0  0  0  0  0  0  0
    1.4597   -0.2064    0.0000 C   0  0  0  0  0  0  0  0  0
    1.4597   -1.0314    0.0000 C   0  0  0  0  0  0  0  0  0
    0.7452   -1.4439    0.0000 C   0  0  0  0  0  0  0  0  0
    0.0307   -1.0314    0.0000 C   0  0  0  0  0  0  0  0  0
    0.0307   -0.2064    0.0000 C   0  0  0  0  0  0  0  0  0
    0.7452   -2.2689    0.0000 C   0  0  0  0  0  0  0  0  0
    1.4597   -2.6814    0.0000 C   0  0  0  0  0  0  0  0  0
    2.1742   -3.0939    0.0000 N   0  0  0  0  0  0  0  0  0
  1  2  1  0  0  0  0
  1  5  1  0  0  0  0
  1  8  1  0  0  0  0
  2  3  1  0  0  0  0
  3  4  1  0  0  0  0
  5  6  1  0  0  0  0
  6  7  1  0  0  0  0
  8  9  1  0  0  0  0
  8 13  1  0  0  0  0
  9 10  1  0  0  0  0
 10 11  1  0  0  0  0
 11 12  1  0  0  0  0
 11 14  2  0  0  0  0
 12 13  1  0  0  0  0
 14 15  1  0  0  0  0
 15 16  3  0  0  0  0
M  END
>  <Name_Molregno>
273894

>  <DOPAMINE D2>
4.7

>  <DOPAMINE D3>
4.89

>  <DOPAMINE D4>
4.7

$$$$
273895
  Marvin  02231216192D 0   1.00000     0.00000     0

 18 18  0  0  0  0  0  0  0  0999 V2000
    1.2054    1.2375    0.0000 N   0  0  0  0  0  0  0  0  0
    0.4909    1.6500    0.0000 C   0  0  0  0  0  0  0  0  0
    0.4909    2.4750    0.0000 C   0  0  0  0  0  0  0  0  0
   -0.2236    2.8875    0.0000 C   0  0  0  0  0  0  0  0  0
    1.9198    1.6500    0.0000 C   0  0  0  0  0  0  0  0  0
    1.9198    2.4750    0.0000 C   0  0  0  0  0  0  0  0  0
    2.6343    2.8875    0.0000 C   0  0  0  0  0  0  0  0  0
    1.2054    0.4125    0.0000 C   0  0  0  0  0  0  0  0  0
    1.9198    0.0000    0.0000 C   0  0  0  0  0  0  0  0  0
    1.9198   -0.8250    0.0000 C   0  0  0  0  0  0  0  0  0
    1.2054   -1.2375    0.0000 C   0  0  0  0  0  0  0  0  0
    0.4909   -0.8250    0.0000 C   0  0  0  0  0  0  0  0  0
    0.4909    0.0000    0.0000 C   0  0  0  0  0  0  0  0  0
    1.2054   -2.0625    0.0000 C   0  0  0  0  0  0  0  0  0
    0.4909   -2.4750    0.0000 C   0  0  0  0  0  0  0  0  0
   -0.2236   -2.8875    0.0000 N   0  0  0  0  0  0  0  0  0
    1.9198   -2.4750    0.0000 C   0  0  0  0  0  0  0  0  0
    2.6343   -2.8875    0.0000 N   0  0  0  0  0  0  0  0  0
  1  2  1  0  0  0  0
  1  5  1  0  0  0  0
  1  8  1  0  0  0  0
  2  3  1  0  0  0  0
  3  4  1  0  0  0  0
  5  6  1  0  0  0  0
  6  7  1  0  0  0  0
  8  9  1  0  0  0  0
  8 13  1  0  0  0  0
  9 10  1  0  0  0  0
 10 11  1  0  0  0  0
 11 12  1  0  0  0  0
 11 14  2  0  0  0  0
 12 13  1  0  0  0  0
 14 15  1  0  0  0  0
 14 17  1  0  0  0  0
 15 16  3  0  0  0  0
 17 18  3  0  0  0  0
M  END
>  <Name_Molregno>
273895

>  <DOPAMINE D2>
4.76

>  <DOPAMINE D3>
5.8

>  <DOPAMINE D4>
4.7

$$$$
274428
  Marvin  02231216192D 0   1.00000     0.00000     0

 30 32  0  0  0  0  0  0  0  0999 V2000
    2.6518    2.7225    0.0000 N   0  0  0  0  0  0  0  0  0
    1.9373    3.1350    0.0000 C   0  0  0  0  0  0  0  0  0
    1.9373    3.9600    0.0000 C   0  0  0  0  0  0  0  0  0
    1.2228    4.3725    0.0000 C   0  0  0  0  0  0  0  0  0
    3.3663    3.1350    0.0000 C   0  0  0  0  0  0  0  0  0
    3.3663    3.9600    0.0000 C   0  0  0  0  0  0  0  0  0
    4.0807    4.3725    0.0000 C   0  0  0  0  0  0  0  0  0
    2.6518    1.8975    0.0000 C   0  0  0  0  0  0  0  0  0
    3.3663    1.4850    0.0000 C   0  0  0  0  0  0  0  0  0
    3.3663    0.6600    0.0000 C   0  0  0  0  0  0  0  0  0
    2.6518    0.2475    0.0000 C   0  0  0  0  0  0  0  0  0
    1.9373    0.6600    0.0000 C   0  0  0  0  0  0  0  0  0
    1.9373    1.4850    0.0000 C   0  0  0  0  0  0  0  0  0
    2.6518   -0.5775    0.0000 C   0  0  0  0  0  0  0  0  0
    1.9373   -0.9900    0.0000 C   0  0  0  0  0  0  0  0  0
    1.2228   -1.4025    0.0000 C   0  0  0  0  0  0  0  0  0
    0.5084   -1.8150    0.0000 C   0  0  0  0  0  0  0  0  0
    0.5084   -2.6400    0.0000 C   0  0  0  0  0  0  0  0  0
   -0.2061   -3.0525    0.0000 C   0  0  0  0  0  0  0  0  0
   -0.9206   -2.6400    0.0000 C   0  0  0  0  0  0  0  0  0
   -0.9206   -1.8150    0.0000 C   0  0  0  0  0  0  0  0  0
   -0.2061   -1.4025    0.0000 C   0  0  0  0  0  0  0  0  0
    3.3663   -0.9900    0.0000 C   0  0  0  0  0  0  0  0  0
    4.0807   -1.4025    0.0000 C   0  0  0  0  0  0  0  0  0
    4.7952   -1.8150    0.0000 C   0  0  0  0  0  0  0  0  0
    5.5097   -1.4025    0.0000 C   0  0  0  0  0  0  0  0  0
    6.2241   -1.8150    0.0000 C   0  0  0  0  0  0  0  0  0
    6.2241   -2.6400    0.0000 C   0  0  0  0  0  0  0  0  0
    5.5097   -3.0525    0.0000 C   0  0  0  0  0  0  0  0  0
    4.7952   -2.6400    0.0000 C   0  0  0  0  0  0  0  0  0
  1  2  1  0  0  0  0
  1  5  1  0  0  0  0
  1  8  1  0  0  0  0
  2  3  1  0  0  0  0
  3  4  1  0  0  0  0
  5  6  1  0  0  0  0
  6  7  1  0  0  0  0
  8  9  1  0  0  0  0
  8 13  1  0  0  0  0
  9 10  1  0  0  0  0
 10 11  1  0  0  0  0
 11 12  1  0  0  0  0
 11 14  2  0  0  0  0
 12 13  1  0  0  0  0
 14 15  1  0  0  0  0
 14 23  1  0  0  0  0
 15 16  3  0  0  0  0
 16 17  1  0  0  0  0
 17 18  4  0  0  0  0
 17 22  4  0  0  0  0
 18 19  4  0  0  0  0
 19 20  4  0  0  0  0
 20 21  4  0  0  0  0
 21 22  4  0  0  0  0
 23 24  3  0  0  0  0
 24 25  1  0  0  0  0
 25 26  4  0  0  0  0
 25 30  4  0  0  0  0
 26 27  4  0  0  0  0
 27 28  4  0  0  0  0
 28 29  4  0  0  0  0
 29 30  4  0  0  0  0
M  END
>  <Name_Molregno>
274428

>  <DOPAMINE D2>
5.21

>  <DOPAMINE D3>
5.74

>  <DOPAMINE D4>
5.85

$$$$
274457
  Marvin  02231216192D 0   1.00000     0.00000     0

 18 18  0  0  0  0  0  0  0  0999 V2000
    1.2054    1.2375    0.0000 N   0  0  0  0  0  0  0  0  0
    0.4909    1.6500    0.0000 C   0  0  0  0  0  0  0  0  0
    0.4909    2.4750    0.0000 C   0  0  0  0  0  0  0  0  0
   -0.2236    2.8875    0.0000 C   0  0  0  0  0  0  0  0  0
    1.9198    1.6500    0.0000 C   0  0  0  0  0  0  0  0  0
    1.9198    2.4750    0.0000 C   0  0  0  0  0  0  0  0  0
    2.6343    2.8875    0.0000 C   0  0  0  0  0  0  0  0  0
    1.2054    0.4125    0.0000 C   0  0  0  0  0  0  0  0  0
    1.9198    0.0000    0.0000 C   0  0  0  0  0  0  0  0  0
    1.9198   -0.8250    0.0000 C   0  0  0  0  0  0  0  0  0
    1.2054   -1.2375    0.0000 C   0  0  0  0  0  0  0  0  0
    0.4909   -0.8250    0.0000 C   0  0  0  0  0  0  0  0  0
    0.4909    0.0000    0.0000 C   0  0  0  0  0  0  0  0  0
    1.2054   -2.0625    0.0000 C   0  0  0  0  0  0  0  0  0
    0.4909   -2.4750    0.0000 C   0  0  0  0  0  0  0  0  0
   -0.2236   -2.8875    0.0000 C   0  0  0  0  0  0  0  0  0
    1.9198   -2.4750    0.0000 C   0  0  0  0  0  0  0  0  0
    2.6343   -2.8875    0.0000 C   0  0  0  0  0  0  0  0  0
  1  2  1  0  0  0  0
  1  5  1  0  0  0  0
  1  8  1  0  0  0  0
  2  3  1  0  0  0  0
  3  4  1  0  0  0  0
  5  6  1  0  0  0  0
  6  7  1  0  0  0  0
  8  9  1  0  0  0  0
  8 13  1  0  0  0  0
  9 10  1  0  0  0  0
 10 11  1  0  0  0  0
 11 12  1  0  0  0  0
 11 14  2  0  0  0  0
 12 13  1  0  0  0  0
 14 15  1  0  0  0  0
 14 17  1  0  0  0  0
 15 16  3  0  0  0  0
 17 18  3  0  0  0  0
M  END
>  <Name_Molregno>
274457

>  <DOPAMINE D2>
4.81

>  <DOPAMINE D3>
5.36

>  <DOPAMINE D4>
5.41

$$$$
274460
  Marvin  02231216192D 0   1.00000     0.00000     0

 21 22  0  0  1  0  0  0  0  0999 V2000
    2.1046    2.1607    0.0000 N   0  0  0  0  0  0  0  0  0
    1.3901    2.5732    0.0000 C   0  0  0  0  0  0  0  0  0
    1.3901    3.3982    0.0000 C   0  0  0  0  0  0  0  0  0
    0.6756    3.8107    0.0000 C   0  0  0  0  0  0  0  0  0
    2.8191    2.5732    0.0000 C   0  0  0  0  0  0  0  0  0
    2.8191    3.3982    0.0000 C   0  0  0  0  0  0  0  0  0
    3.5335    3.8107    0.0000 C   0  0  0  0  0  0  0  0  0
    2.1046    1.3357    0.0000 C   0  0  0  0  0  0  0  0  0
    2.8191    0.9232    0.0000 C   0  0  0  0  0  0  0  0  0
    2.8191    0.0982    0.0000 C   0  0  0  0  0  0  0  0  0
    2.1046   -0.3143    0.0000 C   0  0  0  0  0  0  0  0  0
    1.3901    0.0982    0.0000 C   0  0  0  0  0  0  0  0  0
    1.3901    0.9232    0.0000 C   0  0  0  0  0  0  0  0  0
    2.1046   -1.1393    0.0000 C   0  0  0  0  0  0  0  0  0
    2.1046   -1.9643    0.0000 C   0  0  0  0  0  0  0  0  0
    2.1046   -2.7893    0.0000 C   0  0  0  0  0  0  0  0  0
    2.8191   -3.2018    0.0000 C   0  0  0  0  0  0  0  0  0
    2.8191   -4.0268    0.0000 C   0  0  0  0  0  0  0  0  0
    2.1046   -4.4393    0.0000 C   0  0  0  0  0  0  0  0  0
    1.3901   -4.0268    0.0000 C   0  0  0  0  0  0  0  0  0
    1.3901   -3.2018    0.0000 C   0  0  0  0  0  0  0  0  0
  1  2  1  0  0  0  0
  1  5  1  0  0  0  0
  1  8  1  0  0  0  0
  2  3  1  0  0  0  0
  3  4  1  0  0  0  0
  5  6  1  0  0  0  0
  6  7  1  0  0  0  0
  8  9  1  0  0  0  0
  8 13  1  0  0  0  0
  9 10  1  0  0  0  0
 10 11  1  0  0  0  0
 11 12  2  0  0  0  0
 11 14  1  0  0  0  0
 12 13  1  0  0  0  0
 14 15  3  0  0  0  0
 15 16  1  0  0  0  0
 16 17  4  0  0  0  0
 16 21  4  0  0  0  0
 17 18  4  0  0  0  0
 18 19  4  0  0  0  0
 19 20  4  0  0  0  0
 20 21  4  0  0  0  0
M  END
>  <Name_Molregno>
274460

>  <DOPAMINE D3>
5.46

>  <DOPAMINE D4>
4.8

$$$$
296747
  Marvin  02231216192D 0   1.00000     0.00000     0

 36 40  0  0  1  0  0  0  0  0999 V2000
    2.0923    2.6223    0.0000 O   0  0  0  0  0  0  0  0  0
    1.3285    2.9341    0.0000 N   0  0  0  0  0  0  0  0  0
    0.7959    2.3041    0.0000 C   0  0  0  0  0  0  0  0  0
    1.2305    1.6028    0.0000 C   0  0  0  0  0  0  0  0  0
    0.8405    0.8758    0.0000 C   0  0  0  0  0  0  0  0  0
    0.0159    0.8501    0.0000 O   0  0  0  0  0  0  0  0  0
   -0.4187    1.5513    0.0000 C   0  0  0  0  0  0  0  0  0
   -1.2433    1.5255    0.0000 C   0  0  0  0  0  0  0  0  0
   -1.6779    2.2268    0.0000 C   0  0  0  0  0  0  0  0  0
   -2.5025    2.2010    0.0000 O   0  0  0  0  0  0  0  0  0
   -2.9371    2.9023    0.0000 C   0  0  0  0  0  0  0  0  0
   -1.2879    2.9538    0.0000 C   0  0  0  0  0  0  0  0  0
   -1.7225    3.6550    0.0000 O   0  0  0  0  0  0  0  0  0
   -1.3326    4.3820    0.0000 C   0  0  0  0  0  0  0  0  0
   -0.4633    2.9796    0.0000 C   0  0  0  0  0  0  0  0  0
   -0.0287    2.2783    0.0000 C   0  0  0  0  0  0  0  0  0
    2.0317    1.7995    0.0000 C   0  0  0  0  0  0  0  0  0
    2.6617    1.2669    0.0000 C   0  0  0  0  0  0  0  0  0
    2.5155    0.4549    0.0000 N   0  0  0  0  0  0  0  0  0
    3.1455   -0.0777    0.0000 C   0  0  0  0  0  0  0  0  0
    2.9993   -0.8896    0.0000 C   0  0  0  0  0  0  0  0  0
    2.2230   -1.1689    0.0000 N   0  0  0  0  0  0  0  0  0
    1.5930   -0.6363    0.0000 C   0  0  0  0  0  0  0  0  0
    1.7392    0.1756    0.0000 C   0  0  0  0  0  0  0  0  0
    2.0768   -1.9809    0.0000 C   0  0  0  0  0  0  0  0  0
    2.7068   -2.5135    0.0000 C   0  0  0  0  0  0  0  0  0
    2.5606   -3.3254    0.0000 C   0  0  0  0  0  0  0  0  0
    3.1906   -3.8580    0.0000 C   0  0  0  0  0  0  0  0  0
    3.0443   -4.6700    0.0000 C   0  0  0  0  0  0  0  0  0
    2.2681   -4.9493    0.0000 C   0  0  0  0  0  0  0  0  0
    3.6744   -5.2026    0.0000 C   0  0  0  0  0  0  0  0  0
    4.4507   -4.9233    0.0000 C   0  0  0  0  0  0  0  0  0
    5.0807   -5.4559    0.0000 C   0  0  0  0  0  0  0  0  0
    4.9344   -6.2678    0.0000 C   0  0  0  0  0  0  0  0  0
    4.1582   -6.5472    0.0000 C   0  0  0  0  0  0  0  0  0
    3.5281   -6.0145    0.0000 C   0  0  0  0  0  0  0  0  0
  1  2  1  0  0  0  0
  1 17  1  0  0  0  0
  2  3  2  0  0  0  0
  3  4  1  0  0  0  0
  3 16  1  0  0  0  0
  4  5  1  0  0  0  0
  4 17  1  0  0  0  0
  5  6  1  0  0  0  0
  6  7  1  0  0  0  0
  7  8  4  0  0  0  0
  7 16  4  0  0  0  0
  8  9  4  0  0  0  0
  9 10  1  0  0  0  0
  9 12  4  0  0  0  0
 10 11  1  0  0  0  0
 12 13  1  0  0  0  0
 12 15  4  0  0  0  0
 13 14  1  0  0  0  0
 15 16  4  0  0  0  0
 17 18  1  0  0  0  0
 18 19  1  0  0  0  0
 19 20  1  0  0  0  0
 19 24  1  0  0  0  0
 20 21  1  0  0  0  0
 21 22  1  0  0  0  0
 22 23  1  0  0  0  0
 22 25  1  0  0  0  0
 23 24  1  0  0  0  0
 25 26  1  0  0  0  0
 26 27  1  0  0  0  0
 27 28  1  0  0  0  0
 28 29  2  0  0  0  0
 29 30  1  0  0  0  0
 29 31  1  0  0  0  0
 31 32  4  0  0  0  0
 31 36  4  0  0  0  0
 32 33  4  0  0  0  0
 33 34  4  0  0  0  0
 34 35  4  0  0  0  0
 35 36  4  0  0  0  0
M  END
>  <Name_Molregno>
296747

>  <5-HT1A>
6

>  <5-HT2A>
6

>  <5-HT2C>
6

>  <5-HT7>
6

>  <Alpha-2A>
9.19

>  <Alpha-2B>
7.85

>  <Alpha-2C>
9.46

>  <DOPAMINE D3>
6.21

>  <DOPAMINE D4>
6

>  <HISTAMINE H1>
6

>  <Serotonin transporter>
8.18

$$$$
296899
  Marvin  02231216192D 0   1.00000     0.00000     0

 35 39  0  0  1  0  0  0  0  0999 V2000
    2.1989    2.1726    0.0000 O   0  0  0  0  0  0  0  0  0
    1.4352    2.4844    0.0000 N   0  0  0  0  0  0  0  0  0
    0.9025    1.8544    0.0000 C   0  0  0  0  0  0  0  0  0
    1.3371    1.1531    0.0000 C   0  0  0  0  0  0  0  0  0
    0.9472    0.4261    0.0000 C   0  0  0  0  0  0  0  0  0
    0.1226    0.4004    0.0000 O   0  0  0  0  0  0  0  0  0
   -0.3120    1.1016    0.0000 C   0  0  0  0  0  0  0  0  0
   -1.1366    1.0759    0.0000 C   0  0  0  0  0  0  0  0  0
   -1.5713    1.7771    0.0000 C   0  0  0  0  0  0  0  0  0
   -2.3959    1.7513    0.0000 O   0  0  0  0  0  0  0  0  0
   -2.8305    2.4526    0.0000 C   0  0  0  0  0  0  0  0  0
   -1.1813    2.5041    0.0000 C   0  0  0  0  0  0  0  0  0
   -1.6159    3.2053    0.0000 O   0  0  0  0  0  0  0  0  0
   -1.2259    3.9323    0.0000 C   0  0  0  0  0  0  0  0  0
   -0.3567    2.5299    0.0000 C   0  0  0  0  0  0  0  0  0
    0.0779    1.8286    0.0000 C   0  0  0  0  0  0  0  0  0
    2.1384    1.3498    0.0000 C   0  0  0  0  0  0  0  0  0
    2.7684    0.8172    0.0000 C   0  0  0  0  0  0  0  0  0
    2.6222    0.0052    0.0000 N   0  0  0  0  0  0  0  0  0
    3.2522   -0.5274    0.0000 C   0  0  0  0  0  0  0  0  0
    3.1059   -1.3393    0.0000 C   0  0  0  0  0  0  0  0  0
    2.3297   -1.6186    0.0000 N   0  0  0  0  0  0  0  0  0
    1.6996   -1.0860    0.0000 C   0  0  0  0  0  0  0  0  0
    1.8459   -0.2741    0.0000 C   0  0  0  0  0  0  0  0  0
    2.1834   -2.4306    0.0000 C   0  0  0  0  0  0  0  0  0
    1.4071   -2.7099    0.0000 C   0  0  0  0  0  0  0  0  0
    1.2609   -3.5218    0.0000 C   0  0  0  0  0  0  0  0  0
    1.8909   -4.0544    0.0000 C   0  0  0  0  0  0  0  0  0
    2.6672   -3.7751    0.0000 C   0  0  0  0  0  0  0  0  0
    3.2973   -4.3077    0.0000 C   0  0  0  0  0  0  0  0  0
    4.0735   -4.0284    0.0000 C   0  0  0  0  0  0  0  0  0
    4.7036   -4.5610    0.0000 C   0  0  0  0  0  0  0  0  0
    4.5573   -5.3730    0.0000 C   0  0  0  0  0  0  0  0  0
    3.7810   -5.6523    0.0000 C   0  0  0  0  0  0  0  0  0
    3.1510   -5.1197    0.0000 C   0  0  0  0  0  0  0  0  0
  1  2  1  0  0  0  0
  1 17  1  0  0  0  0
  2  3  2  0  0  0  0
  3  4  1  0  0  0  0
  3 16  1  0  0  0  0
  4  5  1  0  0  0  0
  4 17  1  0  0  0  0
  5  6  1  0  0  0  0
  6  7  1  0  0  0  0
  7  8  4  0  0  0  0
  7 16  4  0  0  0  0
  8  9  4  0  0  0  0
  9 10  1  0  0  0  0
  9 12  4  0  0  0  0
 10 11  1  0  0  0  0
 12 13  1  0  0  0  0
 12 15  4  0  0  0  0
 13 14  1  0  0  0  0
 15 16  4  0  0  0  0
 17 18  1  0  0  0  0
 18 19  1  0  0  0  0
 19 20  1  0  0  0  0
 19 24  1  0  0  0  0
 20 21  1  0  0  0  0
 21 22  1  0  0  0  0
 22 23  1  0  0  0  0
 22 25  1  0  0  0  0
 23 24  1  0  0  0  0
 25 26  1  0  0  0  0
 26 27  1  0  0  0  0
 27 28  1  0  0  0  0
 28 29  2  0  0  0  0
 29 30  1  0  0  0  0
 30 31  4  0  0  0  0
 30 35  4  0  0  0  0
 31 32  4  0  0  0  0
 32 33  4  0  0  0  0
 33 34  4  0  0  0  0
 34 35  4  0  0  0  0
M  END
>  <Name_Molregno>
296899

>  <5-HT1A>
6

>  <5-HT2A>
6

>  <5-HT2C>
6

>  <5-HT7>
6

>  <Alpha-2A>
8.59

>  <Alpha-2B>
7.85

>  <Alpha-2C>
8.52

>  <DOPAMINE D3>
6.57

>  <DOPAMINE D4>
6

>  <HISTAMINE H1>
6

>  <Serotonin transporter>
8.5

$$$$
296920
  Marvin  02231216192D 0   1.00000     0.00000     0

 37 42  0  0  1  0  0  0  0  0999 V2000
   -1.2093    0.9861    0.0000 O   0  0  0  0  0  0  0  0  0
   -1.7613    0.3730    0.0000 N   0  0  0  0  0  0  0  0  0
   -1.3488   -0.3415    0.0000 C   0  0  0  0  0  0  0  0  0
   -0.5418   -0.1700    0.0000 C   0  0  0  0  0  0  0  0  0
    0.0102   -0.7830    0.0000 C   0  0  0  0  0  0  0  0  0
   -0.2447   -1.5677    0.0000 O   0  0  0  0  0  0  0  0  0
   -1.0517   -1.7392    0.0000 C   0  0  0  0  0  0  0  0  0
   -1.3066   -2.5238    0.0000 C   0  0  0  0  0  0  0  0  0
   -2.1136   -2.6953    0.0000 C   0  0  0  0  0  0  0  0  0
   -2.3686   -3.4800    0.0000 O   0  0  0  0  0  0  0  0  0
   -3.1755   -3.6515    0.0000 C   0  0  0  0  0  0  0  0  0
   -2.6656   -2.0823    0.0000 C   0  0  0  0  0  0  0  0  0
   -3.4726   -2.2538    0.0000 O   0  0  0  0  0  0  0  0  0
   -4.0247   -1.6407    0.0000 C   0  0  0  0  0  0  0  0  0
   -2.4107   -1.2976    0.0000 C   0  0  0  0  0  0  0  0  0
   -1.6037   -1.1261    0.0000 C   0  0  0  0  0  0  0  0  0
   -0.4556    0.6505    0.0000 C   0  0  0  0  0  0  0  0  0
    0.2589    1.0630    0.0000 C   0  0  0  0  0  0  0  0  0
    0.9734    0.6505    0.0000 N   0  0  0  0  0  0  0  0  0
    1.6878    1.0630    0.0000 C   0  0  0  0  0  0  0  0  0
    2.4023    0.6505    0.0000 C   0  0  0  0  0  0  0  0  0
    2.4023   -0.1745    0.0000 N   0  0  0  0  0  0  0  0  0
    1.6878   -0.5870    0.0000 C   0  0  0  0  0  0  0  0  0
    0.9734   -0.1745    0.0000 C   0  0  0  0  0  0  0  0  0
    3.1168   -0.5870    0.0000 C   0  0  0  0  0  0  0  0  0
    3.8312   -0.1745    0.0000 C   0  0  0  0  0  0  0  0  0
    4.5457   -0.5870    0.0000 C   0  0  0  0  0  0  0  0  0
    5.2602   -0.1745    0.0000 C   0  0  0  0  0  0  0  0  0
    5.9747   -0.5870    0.0000 C   0  0  0  0  0  0  0  0  0
    6.6891   -0.1745    0.0000 C   0  0  0  0  0  0  0  0  0
    6.6891    0.6505    0.0000 C   0  0  0  0  0  0  0  0  0
    5.9747    1.0630    0.0000 C   0  0  0  0  0  0  0  0  0
    5.2602    0.6505    0.0000 C   0  0  0  0  0  0  0  0  0
    7.4036    1.0630    0.0000 C   0  0  0  0  0  0  0  0  0
    8.1181    0.6505    0.0000 C   0  0  0  0  0  0  0  0  0
    8.1181   -0.1745    0.0000 C   0  0  0  0  0  0  0  0  0
    7.4036   -0.5870    0.0000 C   0  0  0  0  0  0  0  0  0
  1  2  1  0  0  0  0
  1 17  1  0  0  0  0
  2  3  2  0  0  0  0
  3  4  1  0  0  0  0
  3 16  1  0  0  0  0
  4  5  1  0  0  0  0
  4 17  1  0  0  0  0
  5  6  1  0  0  0  0
  6  7  1  0  0  0  0
  7  8  4  0  0  0  0
  7 16  4  0  0  0  0
  8  9  4  0  0  0  0
  9 10  1  0  0  0  0
  9 12  4  0  0  0  0
 10 11  1  0  0  0  0
 12 13  1  0  0  0  0
 12 15  4  0  0  0  0
 13 14  1  0  0  0  0
 15 16  4  0  0  0  0
 17 18  1  0  0  0  0
 18 19  1  0  0  0  0
 19 20  1  0  0  0  0
 19 24  1  0  0  0  0
 20 21  1  0  0  0  0
 21 22  1  0  0  0  0
 22 23  1  0  0  0  0
 22 25  1  0  0  0  0
 23 24  1  0  0  0  0
 25 26  1  0  0  0  0
 26 27  1  0  0  0  0
 27 28  1  0  0  0  0
 28 29  4  0  0  0  0
 28 33  4  0  0  0  0
 29 30  4  0  0  0  0
 30 31  4  0  0  0  0
 30 37  4  0  0  0  0
 31 32  4  0  0  0  0
 31 34  4  0  0  0  0
 32 33  4  0  0  0  0
 34 35  4  0  0  0  0
 35 36  4  0  0  0  0
 36 37  4  0  0  0  0
M  END
>  <Name_Molregno>
296920

>  <5-HT1A>
6

>  <5-HT2A>
6

>  <5-HT2C>
6

>  <5-HT7>
6

>  <Alpha-2A>
8.6

>  <Alpha-2B>
7.85

>  <Alpha-2C>
8.81

>  <DOPAMINE D3>
6.97

>  <DOPAMINE D4>
6

>  <HISTAMINE H1>
6.34

>  <Serotonin transporter>
8.77

$$$$
296939
  Marvin  02231216192D 0   1.00000     0.00000     0

 36 40  0  0  1  0  0  0  0  0999 V2000
    1.5477    2.2344    0.0000 O   0  0  0  0  0  0  0  0  0
    0.7839    2.5463    0.0000 N   0  0  0  0  0  0  0  0  0
    0.2513    1.9162    0.0000 C   0  0  0  0  0  0  0  0  0
    0.6859    1.2150    0.0000 C   0  0  0  0  0  0  0  0  0
    0.2959    0.4880    0.0000 C   0  0  0  0  0  0  0  0  0
   -0.5287    0.4622    0.0000 O   0  0  0  0  0  0  0  0  0
   -0.9633    1.1635    0.0000 C   0  0  0  0  0  0  0  0  0
   -1.7879    1.1377    0.0000 C   0  0  0  0  0  0  0  0  0
   -2.2225    1.8389    0.0000 C   0  0  0  0  0  0  0  0  0
   -3.0471    1.8132    0.0000 O   0  0  0  0  0  0  0  0  0
   -3.4817    2.5144    0.0000 C   0  0  0  0  0  0  0  0  0
   -1.8325    2.5659    0.0000 C   0  0  0  0  0  0  0  0  0
   -2.2672    3.2672    0.0000 O   0  0  0  0  0  0  0  0  0
   -1.8772    3.9942    0.0000 C   0  0  0  0  0  0  0  0  0
   -1.0079    2.5917    0.0000 C   0  0  0  0  0  0  0  0  0
   -0.5733    1.8905    0.0000 C   0  0  0  0  0  0  0  0  0
    1.4871    1.4116    0.0000 C   0  0  0  0  0  0  0  0  0
    2.1171    0.8790    0.0000 C   0  0  0  0  0  0  0  0  0
    1.9709    0.0671    0.0000 N   0  0  0  0  0  0  0  0  0
    2.6009   -0.4655    0.0000 C   0  0  0  0  0  0  0  0  0
    2.4547   -1.2775    0.0000 C   0  0  0  0  0  0  0  0  0
    1.6784   -1.5568    0.0000 N   0  0  0  0  0  0  0  0  0
    1.0484   -1.0242    0.0000 C   0  0  0  0  0  0  0  0  0
    1.1946   -0.2122    0.0000 C   0  0  0  0  0  0  0  0  0
    1.5322   -2.3687    0.0000 C   0  0  0  0  0  0  0  0  0
    2.1622   -2.9013    0.0000 C   0  0  0  0  0  0  0  0  0
    2.9385   -2.6220    0.0000 C   0  0  0  0  0  0  0  0  0
    3.5685   -3.1546    0.0000 C   0  0  0  0  0  0  0  0  0
    4.3448   -2.8753    0.0000 C   0  0  0  0  0  0  0  0  0
    4.4910   -2.0634    0.0000 C   0  0  0  0  0  0  0  0  0
    3.8610   -1.5308    0.0000 C   0  0  0  0  0  0  0  0  0
    4.0072   -0.7188    0.0000 C   0  0  0  0  0  0  0  0  0
    4.7835   -0.4395    0.0000 C   0  0  0  0  0  0  0  0  0
    5.4135   -0.9721    0.0000 C   0  0  0  0  0  0  0  0  0
    5.2673   -1.7841    0.0000 C   0  0  0  0  0  0  0  0  0
    3.4223   -3.9666    0.0000 C   0  0  0  0  0  0  0  0  0
  1  2  1  0  0  0  0
  1 17  1  0  0  0  0
  2  3  2  0  0  0  0
  3  4  1  0  0  0  0
  3 16  1  0  0  0  0
  4  5  1  0  0  0  0
  4 17  1  0  0  0  0
  5  6  1  0  0  0  0
  6  7  1  0  0  0  0
  7  8  4  0  0  0  0
  7 16  4  0  0  0  0
  8  9  4  0  0  0  0
  9 10  1  0  0  0  0
  9 12  4  0  0  0  0
 10 11  1  0  0  0  0
 12 13  1  0  0  0  0
 12 15  4  0  0  0  0
 13 14  1  0  0  0  0
 15 16  4  0  0  0  0
 17 18  1  0  0  0  0
 18 19  1  0  0  0  0
 19 20  1  0  0  0  0
 19 24  1  0  0  0  0
 20 21  1  0  0  0  0
 21 22  1  0  0  0  0
 22 23  1  0  0  0  0
 22 25  1  0  0  0  0
 23 24  1  0  0  0  0
 25 26  1  0  0  0  0
 26 27  1  0  0  0  0
 27 28  1  0  0  0  0
 28 29  2  0  0  0  0
 28 36  1  0  0  0  0
 29 30  1  0  0  0  0
 30 31  4  0  0  0  0
 30 35  4  0  0  0  0
 31 32  4  0  0  0  0
 32 33  4  0  0  0  0
 33 34  4  0  0  0  0
 34 35  4  0  0  0  0
M  END
>  <Name_Molregno>
296939

>  <5-HT1A>
6.32

>  <5-HT2A>
6

>  <5-HT2C>
6

>  <5-HT7>
6

>  <Alpha-2A>
9.31

>  <Alpha-2B>
8.52

>  <Alpha-2C>
9.85

>  <DOPAMINE D3>
6.36

>  <DOPAMINE D4>
6

>  <HISTAMINE H1>
6.95

>  <Serotonin transporter>
8.46

$$$$
297493
  Marvin  02231216192D 0   1.00000     0.00000     0

 30 33  0  0  0  0  0  0  0  0999 V2000
   -6.4399   -3.3062    0.0000 Cl  0  0  0  0  0  0  0  0  0
   -5.6149   -3.3062    0.0000 C   0  0  0  0  0  0  0  0  0
   -5.2024   -2.5918    0.0000 C   0  0  0  0  0  0  0  0  0
   -5.6149   -1.8773    0.0000 N   0  0  0  0  0  0  0  0  0
   -6.4399   -1.8773    0.0000 C   0  0  0  0  0  0  0  0  0
   -6.8524   -1.1628    0.0000 C   0  0  0  0  0  0  0  0  0
   -6.4399   -0.4484    0.0000 N   0  0  0  0  0  0  0  0  0
   -5.6149   -0.4484    0.0000 C   0  0  0  0  0  0  0  0  0
   -5.2024   -1.1628    0.0000 C   0  0  0  0  0  0  0  0  0
   -6.8524    0.2661    0.0000 C   0  0  0  0  0  0  0  0  0
   -6.4399    0.9806    0.0000 C   0  0  0  0  0  0  0  0  0
   -5.6149    0.9806    0.0000 C   0  0  0  0  0  0  0  0  0
   -5.2024    1.6951    0.0000 C   0  0  0  0  0  0  0  0  0
   -4.3774    1.6951    0.0000 N   0  0  0  0  0  0  0  0  0
   -3.9649    2.4095    0.0000 C   0  0  0  0  0  0  0  0  0
   -4.3774    3.1240    0.0000 O   0  0  0  0  0  0  0  0  0
   -3.1399    2.4095    0.0000 C   0  0  0  0  0  0  0  0  0
   -2.6550    1.7421    0.0000 O   0  0  0  0  0  0  0  0  0
   -1.8704    1.9970    0.0000 C   0  0  0  0  0  0  0  0  0
   -1.8704    2.8220    0.0000 C   0  0  0  0  0  0  0  0  0
   -2.6550    3.0770    0.0000 C   0  0  0  0  0  0  0  0  0
   -1.1559    3.2345    0.0000 C   0  0  0  0  0  0  0  0  0
   -0.4414    2.8220    0.0000 C   0  0  0  0  0  0  0  0  0
   -0.4414    1.9970    0.0000 C   0  0  0  0  0  0  0  0  0
   -1.1559    1.5845    0.0000 C   0  0  0  0  0  0  0  0  0
   -4.3774   -2.5918    0.0000 C   0  0  0  0  0  0  0  0  0
   -3.9649   -3.3062    0.0000 C   0  0  0  0  0  0  0  0  0
   -4.3774   -4.0207    0.0000 C   0  0  0  0  0  0  0  0  0
   -5.2024   -4.0207    0.0000 C   0  0  0  0  0  0  0  0  0
   -5.6149   -4.7352    0.0000 Cl  0  0  0  0  0  0  0  0  0
  1  2  1  0  0  0  0
  2  3  4  0  0  0  0
  2 29  4  0  0  0  0
  3  4  1  0  0  0  0
  3 26  4  0  0  0  0
  4  5  1  0  0  0  0
  4  9  1  0  0  0  0
  5  6  1  0  0  0  0
  6  7  1  0  0  0  0
  7  8  1  0  0  0  0
  7 10  1  0  0  0  0
  8  9  1  0  0  0  0
 10 11  1  0  0  0  0
 11 12  2  0  0  0  0
 12 13  1  0  0  0  0
 13 14  1  0  0  0  0
 14 15  1  0  0  0  0
 15 16  2  0  0  0  0
 15 17  1  0  0  0  0
 17 18  4  0  0  0  0
 17 21  4  0  0  0  0
 18 19  4  0  0  0  0
 19 20  4  0  0  0  0
 19 25  4  0  0  0  0
 20 21  4  0  0  0  0
 20 22  4  0  0  0  0
 22 23  4  0  0  0  0
 23 24  4  0  0  0  0
 24 25  4  0  0  0  0
 26 27  4  0  0  0  0
 27 28  4  0  0  0  0
 28 29  4  0  0  0  0
 29 30  1  0  0  0  0
M  END
>  <Name_Molregno>
297493

>  <DOPAMINE D2>
7.04

>  <DOPAMINE D3>
8.5

>  <DOPAMINE D4>
5.97

$$$$
297525
  Marvin  02231216192D 0   1.00000     0.00000     0

 33 36  0  0  0  0  0  0  0  0999 V2000
   -8.3782    2.7133    0.0000 Cl  0  0  0  0  0  0  0  0  0
   -8.3782    1.8883    0.0000 C   0  0  0  0  0  0  0  0  0
   -7.6637    1.4758    0.0000 C   0  0  0  0  0  0  0  0  0
   -6.9492    1.8883    0.0000 N   0  0  0  0  0  0  0  0  0
   -6.9492    2.7133    0.0000 C   0  0  0  0  0  0  0  0  0
   -6.2347    3.1258    0.0000 C   0  0  0  0  0  0  0  0  0
   -5.5203    2.7133    0.0000 N   0  0  0  0  0  0  0  0  0
   -5.5203    1.8883    0.0000 C   0  0  0  0  0  0  0  0  0
   -6.2347    1.4758    0.0000 C   0  0  0  0  0  0  0  0  0
   -4.8058    3.1258    0.0000 C   0  0  0  0  0  0  0  0  0
   -4.0913    2.7133    0.0000 C   0  0  0  0  0  0  0  0  0
   -4.0913    1.8883    0.0000 C   0  0  0  0  0  0  0  0  0
   -3.3769    1.4758    0.0000 C   0  0  0  0  0  0  0  0  0
   -3.3769    0.6508    0.0000 N   0  0  0  0  0  0  0  0  0
   -2.6624    0.2383    0.0000 C   0  0  0  0  0  0  0  0  0
   -1.9479    0.6508    0.0000 O   0  0  0  0  0  0  0  0  0
   -2.6624   -0.5867    0.0000 C   0  0  0  0  0  0  0  0  0
   -1.9479   -0.9992    0.0000 C   0  0  0  0  0  0  0  0  0
   -1.9479   -1.8242    0.0000 C   0  0  0  0  0  0  0  0  0
   -2.6624   -2.2367    0.0000 C   0  0  0  0  0  0  0  0  0
   -3.3769   -1.8242    0.0000 C   0  0  0  0  0  0  0  0  0
   -3.3769   -0.9992    0.0000 C   0  0  0  0  0  0  0  0  0
   -2.6624   -3.0617    0.0000 C   0  0  0  0  0  0  0  0  0
   -1.9479   -3.4742    0.0000 N   0  0  0  0  0  0  0  0  0
   -1.9479   -4.2992    0.0000 C   0  0  0  0  0  0  0  0  0
   -2.6624   -4.7117    0.0000 C   0  0  0  0  0  0  0  0  0
   -3.3769   -4.2992    0.0000 C   0  0  0  0  0  0  0  0  0
   -3.3769   -3.4742    0.0000 C   0  0  0  0  0  0  0  0  0
   -7.6637    0.6508    0.0000 C   0  0  0  0  0  0  0  0  0
   -8.3782    0.2383    0.0000 C   0  0  0  0  0  0  0  0  0
   -9.0926    0.6508    0.0000 C   0  0  0  0  0  0  0  0  0
   -9.0926    1.4758    0.0000 C   0  0  0  0  0  0  0  0  0
   -9.8071    1.8883    0.0000 Cl  0  0  0  0  0  0  0  0  0
  1  2  1  0  0  0  0
  2  3  4  0  0  0  0
  2 32  4  0  0  0  0
  3  4  1  0  0  0  0
  3 29  4  0  0  0  0
  4  5  1  0  0  0  0
  4  9  1  0  0  0  0
  5  6  1  0  0  0  0
  6  7  1  0  0  0  0
  7  8  1  0  0  0  0
  7 10  1  0  0  0  0
  8  9  1  0  0  0  0
 10 11  1  0  0  0  0
 11 12  2  0  0  0  0
 12 13  1  0  0  0  0
 13 14  1  0  0  0  0
 14 15  1  0  0  0  0
 15 16  2  0  0  0  0
 15 17  1  0  0  0  0
 17 18  4  0  0  0  0
 17 22  4  0  0  0  0
 18 19  4  0  0  0  0
 19 20  4  0  0  0  0
 20 21  4  0  0  0  0
 20 23  1  0  0  0  0
 21 22  4  0  0  0  0
 23 24  4  0  0  0  0
 23 28  4  0  0  0  0
 24 25  4  0  0  0  0
 25 26  4  0  0  0  0
 26 27  4  0  0  0  0
 27 28  4  0  0  0  0
 29 30  4  0  0  0  0
 30 31  4  0  0  0  0
 31 32  4  0  0  0  0
 32 33  1  0  0  0  0
M  END
>  <Name_Molregno>
297525

>  <5-HT1A>
7.07

>  <5-HT2A>
7.2

>  <5-HT2C>
7.33

>  <DOPAMINE D2>
7.02

>  <DOPAMINE D3>
9.03

>  <DOPAMINE D4>
6.43

$$$$
297570
  Marvin  02231216192D 0   1.00000     0.00000     0

 33 36  0  0  0  0  0  0  0  0999 V2000
   -8.3782    2.7133    0.0000 Cl  0  0  0  0  0  0  0  0  0
   -8.3782    1.8883    0.0000 C   0  0  0  0  0  0  0  0  0
   -7.6637    1.4758    0.0000 C   0  0  0  0  0  0  0  0  0
   -6.9492    1.8883    0.0000 N   0  0  0  0  0  0  0  0  0
   -6.9492    2.7133    0.0000 C   0  0  0  0  0  0  0  0  0
   -6.2347    3.1258    0.0000 C   0  0  0  0  0  0  0  0  0
   -5.5203    2.7133    0.0000 N   0  0  0  0  0  0  0  0  0
   -5.5203    1.8883    0.0000 C   0  0  0  0  0  0  0  0  0
   -6.2347    1.4758    0.0000 C   0  0  0  0  0  0  0  0  0
   -4.8058    3.1258    0.0000 C   0  0  0  0  0  0  0  0  0
   -4.0913    2.7133    0.0000 C   0  0  0  0  0  0  0  0  0
   -4.0913    1.8883    0.0000 C   0  0  0  0  0  0  0  0  0
   -3.3769    1.4758    0.0000 C   0  0  0  0  0  0  0  0  0
   -3.3769    0.6508    0.0000 N   0  0  0  0  0  0  0  0  0
   -2.6624    0.2383    0.0000 C   0  0  0  0  0  0  0  0  0
   -1.9479    0.6508    0.0000 O   0  0  0  0  0  0  0  0  0
   -2.6624   -0.5867    0.0000 C   0  0  0  0  0  0  0  0  0
   -1.9479   -0.9992    0.0000 C   0  0  0  0  0  0  0  0  0
   -1.9479   -1.8242    0.0000 C   0  0  0  0  0  0  0  0  0
   -2.6624   -2.2367    0.0000 C   0  0  0  0  0  0  0  0  0
   -3.3769   -1.8242    0.0000 C   0  0  0  0  0  0  0  0  0
   -3.3769   -0.9992    0.0000 C   0  0  0  0  0  0  0  0  0
   -2.6624   -3.0617    0.0000 C   0  0  0  0  0  0  0  0  0
   -1.9479   -3.4742    0.0000 C   0  0  0  0  0  0  0  0  0
   -1.9479   -4.2992    0.0000 C   0  0  0  0  0  0  0  0  0
   -2.6624   -4.7117    0.0000 C   0  0  0  0  0  0  0  0  0
   -3.3769   -4.2992    0.0000 N   0  0  0  0  0  0  0  0  0
   -3.3769   -3.4742    0.0000 C   0  0  0  0  0  0  0  0  0
   -7.6637    0.6508    0.0000 C   0  0  0  0  0  0  0  0  0
   -8.3782    0.2383    0.0000 C   0  0  0  0  0  0  0  0  0
   -9.0926    0.6508    0.0000 C   0  0  0  0  0  0  0  0  0
   -9.0926    1.4758    0.0000 C   0  0  0  0  0  0  0  0  0
   -9.8071    1.8883    0.0000 Cl  0  0  0  0  0  0  0  0  0
  1  2  1  0  0  0  0
  2  3  4  0  0  0  0
  2 32  4  0  0  0  0
  3  4  1  0  0  0  0
  3 29  4  0  0  0  0
  4  5  1  0  0  0  0
  4  9  1  0  0  0  0
  5  6  1  0  0  0  0
  6  7  1  0  0  0  0
  7  8  1  0  0  0  0
  7 10  1  0  0  0  0
  8  9  1  0  0  0  0
 10 11  1  0  0  0  0
 11 12  2  0  0  0  0
 12 13  1  0  0  0  0
 13 14  1  0  0  0  0
 14 15  1  0  0  0  0
 15 16  2  0  0  0  0
 15 17  1  0  0  0  0
 17 18  4  0  0  0  0
 17 22  4  0  0  0  0
 18 19  4  0  0  0  0
 19 20  4  0  0  0  0
 20 21  4  0  0  0  0
 20 23  1  0  0  0  0
 21 22  4  0  0  0  0
 23 24  4  0  0  0  0
 23 28  4  0  0  0  0
 24 25  4  0  0  0  0
 25 26  4  0  0  0  0
 26 27  4  0  0  0  0
 27 28  4  0  0  0  0
 29 30  4  0  0  0  0
 30 31  4  0  0  0  0
 31 32  4  0  0  0  0
 32 33  1  0  0  0  0
M  END
>  <Name_Molregno>
297570

>  <DOPAMINE D2>
7.26

>  <DOPAMINE D3>
9.05

>  <DOPAMINE D4>
6.28

$$$$
297626
  Marvin  02231216192D 0   1.00000     0.00000     0

 30 33  0  0  0  0  0  0  0  0999 V2000
   -6.4399   -3.3062    0.0000 Cl  0  0  0  0  0  0  0  0  0
   -5.6149   -3.3062    0.0000 C   0  0  0  0  0  0  0  0  0
   -5.2024   -2.5918    0.0000 C   0  0  0  0  0  0  0  0  0
   -5.6149   -1.8773    0.0000 N   0  0  0  0  0  0  0  0  0
   -6.4399   -1.8773    0.0000 C   0  0  0  0  0  0  0  0  0
   -6.8524   -1.1628    0.0000 C   0  0  0  0  0  0  0  0  0
   -6.4399   -0.4484    0.0000 N   0  0  0  0  0  0  0  0  0
   -5.6149   -0.4484    0.0000 C   0  0  0  0  0  0  0  0  0
   -5.2024   -1.1628    0.0000 C   0  0  0  0  0  0  0  0  0
   -6.8524    0.2661    0.0000 C   0  0  0  0  0  0  0  0  0
   -6.4399    0.9806    0.0000 C   0  0  0  0  0  0  0  0  0
   -5.6149    0.9806    0.0000 C   0  0  0  0  0  0  0  0  0
   -5.2024    1.6951    0.0000 C   0  0  0  0  0  0  0  0  0
   -4.3774    1.6951    0.0000 N   0  0  0  0  0  0  0  0  0
   -3.9649    2.4095    0.0000 C   0  0  0  0  0  0  0  0  0
   -4.3774    3.1240    0.0000 O   0  0  0  0  0  0  0  0  0
   -3.1399    2.4095    0.0000 C   0  0  0  0  0  0  0  0  0
   -2.6550    1.7421    0.0000 S   0  0  0  0  0  0  0  0  0
   -1.8704    1.9970    0.0000 C   0  0  0  0  0  0  0  0  0
   -1.8704    2.8220    0.0000 C   0  0  0  0  0  0  0  0  0
   -2.6550    3.0770    0.0000 C   0  0  0  0  0  0  0  0  0
   -1.1559    3.2345    0.0000 C   0  0  0  0  0  0  0  0  0
   -0.4414    2.8220    0.0000 C   0  0  0  0  0  0  0  0  0
   -0.4414    1.9970    0.0000 C   0  0  0  0  0  0  0  0  0
   -1.1559    1.5845    0.0000 C   0  0  0  0  0  0  0  0  0
   -4.3774   -2.5918    0.0000 C   0  0  0  0  0  0  0  0  0
   -3.9649   -3.3062    0.0000 C   0  0  0  0  0  0  0  0  0
   -4.3774   -4.0207    0.0000 C   0  0  0  0  0  0  0  0  0
   -5.2024   -4.0207    0.0000 C   0  0  0  0  0  0  0  0  0
   -5.6149   -4.7352    0.0000 Cl  0  0  0  0  0  0  0  0  0
  1  2  1  0  0  0  0
  2  3  4  0  0  0  0
  2 29  4  0  0  0  0
  3  4  1  0  0  0  0
  3 26  4  0  0  0  0
  4  5  1  0  0  0  0
  4  9  1  0  0  0  0
  5  6  1  0  0  0  0
  6  7  1  0  0  0  0
  7  8  1  0  0  0  0
  7 10  1  0  0  0  0
  8  9  1  0  0  0  0
 10 11  1  0  0  0  0
 11 12  2  0  0  0  0
 12 13  1  0  0  0  0
 13 14  1  0  0  0  0
 14 15  1  0  0  0  0
 15 16  2  0  0  0  0
 15 17  1  0  0  0  0
 17 18  4  0  0  0  0
 17 21  4  0  0  0  0
 18 19  4  0  0  0  0
 19 20  4  0  0  0  0
 19 25  4  0  0  0  0
 20 21  4  0  0  0  0
 20 22  4  0  0  0  0
 22 23  4  0  0  0  0
 23 24  4  0  0  0  0
 24 25  4  0  0  0  0
 26 27  4  0  0  0  0
 27 28  4  0  0  0  0
 28 29  4  0  0  0  0
 29 30  1  0  0  0  0
M  END
>  <Name_Molregno>
297626

>  <DOPAMINE D2>
6.76

>  <DOPAMINE D3>
8.04

>  <DOPAMINE D4>
5.75

$$$$
300135
  Marvin  02231216192D 0   1.00000     0.00000     0

 25 28  0  0  0  0  0  0  0  0999 V2000
   -0.0061    0.0907    0.0000 Cl  0  0  0  0  0  0  0  0  0
    0.5459    0.7038    0.0000 C   0  0  0  0  0  0  0  0  0
    0.2910    1.4884    0.0000 C   0  0  0  0  0  0  0  0  0
    0.8430    2.1015    0.0000 C   0  0  0  0  0  0  0  0  0
    1.6500    1.9300    0.0000 C   0  0  0  0  0  0  0  0  0
    1.9049    1.1454    0.0000 C   0  0  0  0  0  0  0  0  0
    1.3529    0.5323    0.0000 C   0  0  0  0  0  0  0  0  0
    1.6079   -0.2524    0.0000 S   0  0  0  0  0  0  0  0  0
    0.8232   -0.5073    0.0000 O   0  0  0  0  0  0  0  0  0
    2.3925    0.0026    0.0000 O   0  0  0  0  0  0  0  0  0
    1.8628   -1.0370    0.0000 N   0  0  0  0  0  0  0  0  0
    1.3779   -1.7044    0.0000 C   0  0  0  0  0  0  0  0  0
    1.8628   -2.3719    0.0000 C   0  0  0  0  0  0  0  0  0
    2.6474   -2.1169    0.0000 C   0  0  0  0  0  0  0  0  0
    2.6474   -1.2919    0.0000 C   0  0  0  0  0  0  0  0  0
    3.3619   -0.8794    0.0000 C   0  0  0  0  0  0  0  0  0
    4.0764   -1.2919    0.0000 C   0  0  0  0  0  0  0  0  0
    4.0764   -2.1169    0.0000 C   0  0  0  0  0  0  0  0  0
    3.3619   -2.5294    0.0000 C   0  0  0  0  0  0  0  0  0
    1.6079   -3.1565    0.0000 C   0  0  0  0  0  0  0  0  0
    2.1599   -3.7696    0.0000 C   0  0  0  0  0  0  0  0  0
    1.9049   -4.5542    0.0000 C   0  0  0  0  0  0  0  0  0
    1.0980   -4.7257    0.0000 N   0  0  0  0  0  0  0  0  0
    0.5459   -4.1126    0.0000 C   0  0  0  0  0  0  0  0  0
    0.8009   -3.3280    0.0000 C   0  0  0  0  0  0  0  0  0
  1  2  1  0  0  0  0
  2  3  4  0  0  0  0
  2  7  4  0  0  0  0
  3  4  4  0  0  0  0
  4  5  4  0  0  0  0
  5  6  4  0  0  0  0
  6  7  4  0  0  0  0
  7  8  1  0  0  0  0
  8  9  2  0  0  0  0
  8 10  2  0  0  0  0
  8 11  1  0  0  0  0
 11 12  4  0  0  0  0
 11 15  4  0  0  0  0
 12 13  4  0  0  0  0
 13 14  4  0  0  0  0
 13 20  1  0  0  0  0
 14 15  4  0  0  0  0
 14 19  4  0  0  0  0
 15 16  4  0  0  0  0
 16 17  4  0  0  0  0
 17 18  4  0  0  0  0
 18 19  4  0  0  0  0
 20 21  1  0  0  0  0
 20 25  2  0  0  0  0
 21 22  1  0  0  0  0
 22 23  1  0  0  0  0
 23 24  1  0  0  0  0
 24 25  1  0  0  0  0
M  END
>  <Name_Molregno>
300135

>  <5-HT1A>
5.7

>  <5-HT2A>
6.22

>  <5-HT2C>
6.42

>  <5-HT6>
9.4

>  <DOPAMINE D2>
5.7

>  <DOPAMINE D3>
6.2

>  <DOPAMINE D4>
5.3

$$$$
300151
  Marvin  02231216192D 0   1.00000     0.00000     0

 25 28  0  0  0  0  0  0  0  0999 V2000
    0.7064    1.1104    0.0000 S   0  0  0  0  0  0  0  0  0
    1.4910    1.3653    0.0000 O   0  0  0  0  0  0  0  0  0
   -0.0782    0.8555    0.0000 O   0  0  0  0  0  0  0  0  0
    0.9613    0.3258    0.0000 N   0  0  0  0  0  0  0  0  0
    0.4764   -0.3417    0.0000 C   0  0  0  0  0  0  0  0  0
    0.9613   -1.0091    0.0000 C   0  0  0  0  0  0  0  0  0
    1.7459   -0.7542    0.0000 C   0  0  0  0  0  0  0  0  0
    1.7459    0.0708    0.0000 C   0  0  0  0  0  0  0  0  0
    2.4604    0.4833    0.0000 C   0  0  0  0  0  0  0  0  0
    3.1749    0.0708    0.0000 C   0  0  0  0  0  0  0  0  0
    3.1749   -0.7542    0.0000 C   0  0  0  0  0  0  0  0  0
    2.4604   -1.1667    0.0000 C   0  0  0  0  0  0  0  0  0
    0.7064   -1.7937    0.0000 C   0  0  0  0  0  0  0  0  0
    1.2584   -2.4068    0.0000 C   0  0  0  0  0  0  0  0  0
    1.0035   -3.1914    0.0000 C   0  0  0  0  0  0  0  0  0
    0.1965   -3.3630    0.0000 N   0  0  0  0  0  0  0  0  0
   -0.3555   -2.7499    0.0000 C   0  0  0  0  0  0  0  0  0
   -0.1006   -1.9652    0.0000 C   0  0  0  0  0  0  0  0  0
    0.4514    1.8950    0.0000 C   0  0  0  0  0  0  0  0  0
   -0.3555    2.0666    0.0000 C   0  0  0  0  0  0  0  0  0
   -0.6105    2.8512    0.0000 C   0  0  0  0  0  0  0  0  0
   -0.0584    3.4643    0.0000 C   0  0  0  0  0  0  0  0  0
    0.7485    3.2927    0.0000 C   0  0  0  0  0  0  0  0  0
    1.0035    2.5081    0.0000 C   0  0  0  0  0  0  0  0  0
    1.8104    2.3366    0.0000 F   0  0  0  0  0  0  0  0  0
  1  2  2  0  0  0  0
  1  3  2  0  0  0  0
  1  4  1  0  0  0  0
  1 19  1  0  0  0  0
  4  5  4  0  0  0  0
  4  8  4  0  0  0  0
  5  6  4  0  0  0  0
  6  7  4  0  0  0  0
  6 13  1  0  0  0  0
  7  8  4  0  0  0  0
  7 12  4  0  0  0  0
  8  9  4  0  0  0  0
  9 10  4  0  0  0  0
 10 11  4  0  0  0  0
 11 12  4  0  0  0  0
 13 14  1  0  0  0  0
 13 18  2  0  0  0  0
 14 15  1  0  0  0  0
 15 16  1  0  0  0  0
 16 17  1  0  0  0  0
 17 18  1  0  0  0  0
 19 20  4  0  0  0  0
 19 24  4  0  0  0  0
 20 21  4  0  0  0  0
 21 22  4  0  0  0  0
 22 23  4  0  0  0  0
 23 24  4  0  0  0  0
 24 25  1  0  0  0  0
M  END
>  <Name_Molregno>
300151

>  <5-HT1A>
6.06

>  <5-HT6>
9

>  <DOPAMINE D2>
5.7

>  <DOPAMINE D3>
6.13

>  <DOPAMINE D4>
5.3

$$$$
307262
  Marvin  02231216192D 0   1.00000     0.00000     0

 31 34  0  0  0  0  0  0  0  0999 V2000
    0.8720    2.5321    0.0000 I   0  0  0  0  0  0  0  0  0
    1.2845    1.8177    0.0000 C   0  0  0  0  0  0  0  0  0
    2.1095    1.8177    0.0000 C   0  0  0  0  0  0  0  0  0
    2.5220    1.1032    0.0000 C   0  0  0  0  0  0  0  0  0
    3.3290    0.9317    0.0000 C   0  0  0  0  0  0  0  0  0
    3.4152    0.1112    0.0000 C   0  0  0  0  0  0  0  0  0
    2.6615   -0.2244    0.0000 S   0  0  0  0  0  0  0  0  0
    2.1095    0.3887    0.0000 C   0  0  0  0  0  0  0  0  0
    1.2845    0.3887    0.0000 C   0  0  0  0  0  0  0  0  0
    0.8720    1.1032    0.0000 C   0  0  0  0  0  0  0  0  0
    4.1297   -0.3013    0.0000 C   0  0  0  0  0  0  0  0  0
    4.1297   -1.1263    0.0000 O   0  0  0  0  0  0  0  0  0
    4.8441    0.1112    0.0000 N   0  0  0  0  0  0  0  0  0
    5.5586   -0.3013    0.0000 C   0  0  0  0  0  0  0  0  0
    6.2731    0.1112    0.0000 C   0  0  0  0  0  0  0  0  0
    6.9875   -0.3013    0.0000 C   0  0  0  0  0  0  0  0  0
    7.7020    0.1112    0.0000 C   0  0  0  0  0  0  0  0  0
    8.4165   -0.3013    0.0000 N   0  0  0  0  0  0  0  0  0
    9.1310    0.1112    0.0000 C   0  0  0  0  0  0  0  0  0
    9.8454   -0.3013    0.0000 C   0  0  0  0  0  0  0  0  0
    9.8454   -1.1263    0.0000 N   0  0  0  0  0  0  0  0  0
    9.1310   -1.5388    0.0000 C   0  0  0  0  0  0  0  0  0
    8.4165   -1.1263    0.0000 C   0  0  0  0  0  0  0  0  0
   10.5599   -1.5388    0.0000 C   0  0  0  0  0  0  0  0  0
   11.2744   -1.1263    0.0000 C   0  0  0  0  0  0  0  0  0
   11.9888   -1.5388    0.0000 C   0  0  0  0  0  0  0  0  0
   11.9888   -2.3638    0.0000 C   0  0  0  0  0  0  0  0  0
   11.2744   -2.7763    0.0000 C   0  0  0  0  0  0  0  0  0
   10.5599   -2.3638    0.0000 C   0  0  0  0  0  0  0  0  0
    9.8454   -2.7763    0.0000 O   0  0  0  0  0  0  0  0  0
    9.8454   -3.6013    0.0000 C   0  0  0  0  0  0  0  0  0
  1  2  1  0  0  0  0
  2  3  4  0  0  0  0
  2 10  4  0  0  0  0
  3  4  4  0  0  0  0
  4  5  4  0  0  0  0
  4  8  4  0  0  0  0
  5  6  4  0  0  0  0
  6  7  4  0  0  0  0
  6 11  1  0  0  0  0
  7  8  4  0  0  0  0
  8  9  4  0  0  0  0
  9 10  4  0  0  0  0
 11 12  2  0  0  0  0
 11 13  1  0  0  0  0
 13 14  1  0  0  0  0
 14 15  1  0  0  0  0
 15 16  1  0  0  0  0
 16 17  1  0  0  0  0
 17 18  1  0  0  0  0
 18 19  1  0  0  0  0
 18 23  1  0  0  0  0
 19 20  1  0  0  0  0
 20 21  1  0  0  0  0
 21 22  1  0  0  0  0
 21 24  1  0  0  0  0
 22 23  1  0  0  0  0
 24 25  4  0  0  0  0
 24 29  4  0  0  0  0
 25 26  4  0  0  0  0
 26 27  4  0  0  0  0
 27 28  4  0  0  0  0
 28 29  4  0  0  0  0
 29 30  1  0  0  0  0
 30 31  1  0  0  0  0
M  END
>  <Name_Molregno>
307262

>  <DOPAMINE D2>
8.16

>  <DOPAMINE D3>
9.07

>  <DOPAMINE D4>
7.38

$$$$
307293
  Marvin  02231216192D 0   1.00000     0.00000     0

 31 34  0  0  0  0  0  0  0  0999 V2000
    0.8327    2.2710    0.0000 I   0  0  0  0  0  0  0  0  0
    1.2452    1.5565    0.0000 C   0  0  0  0  0  0  0  0  0
    2.0702    1.5565    0.0000 C   0  0  0  0  0  0  0  0  0
    2.4827    0.8421    0.0000 C   0  0  0  0  0  0  0  0  0
    3.2897    0.6705    0.0000 C   0  0  0  0  0  0  0  0  0
    3.3760   -0.1499    0.0000 C   0  0  0  0  0  0  0  0  0
    2.6223   -0.4855    0.0000 O   0  0  0  0  0  0  0  0  0
    2.0702    0.1276    0.0000 C   0  0  0  0  0  0  0  0  0
    1.2452    0.1276    0.0000 C   0  0  0  0  0  0  0  0  0
    0.8327    0.8421    0.0000 C   0  0  0  0  0  0  0  0  0
    4.0904   -0.5624    0.0000 C   0  0  0  0  0  0  0  0  0
    4.0904   -1.3874    0.0000 O   0  0  0  0  0  0  0  0  0
    4.8049   -0.1499    0.0000 N   0  0  0  0  0  0  0  0  0
    5.5194   -0.5624    0.0000 C   0  0  0  0  0  0  0  0  0
    6.2338   -0.1499    0.0000 C   0  0  0  0  0  0  0  0  0
    6.9483   -0.5624    0.0000 C   0  0  0  0  0  0  0  0  0
    7.6628   -0.1499    0.0000 C   0  0  0  0  0  0  0  0  0
    8.3772   -0.5624    0.0000 N   0  0  0  0  0  0  0  0  0
    9.0917   -0.1499    0.0000 C   0  0  0  0  0  0  0  0  0
    9.8062   -0.5624    0.0000 C   0  0  0  0  0  0  0  0  0
    9.8062   -1.3874    0.0000 N   0  0  0  0  0  0  0  0  0
    9.0917   -1.7999    0.0000 C   0  0  0  0  0  0  0  0  0
    8.3772   -1.3874    0.0000 C   0  0  0  0  0  0  0  0  0
   10.5207   -1.7999    0.0000 C   0  0  0  0  0  0  0  0  0
   11.2351   -1.3874    0.0000 C   0  0  0  0  0  0  0  0  0
   11.9496   -1.7999    0.0000 C   0  0  0  0  0  0  0  0  0
   11.9496   -2.6249    0.0000 C   0  0  0  0  0  0  0  0  0
   11.2351   -3.0374    0.0000 C   0  0  0  0  0  0  0  0  0
   11.2351   -3.8624    0.0000 Cl  0  0  0  0  0  0  0  0  0
   10.5207   -2.6249    0.0000 C   0  0  0  0  0  0  0  0  0
    9.8062   -3.0374    0.0000 Cl  0  0  0  0  0  0  0  0  0
  1  2  1  0  0  0  0
  2  3  4  0  0  0  0
  2 10  4  0  0  0  0
  3  4  4  0  0  0  0
  4  5  4  0  0  0  0
  4  8  4  0  0  0  0
  5  6  4  0  0  0  0
  6  7  4  0  0  0  0
  6 11  1  0  0  0  0
  7  8  4  0  0  0  0
  8  9  4  0  0  0  0
  9 10  4  0  0  0  0
 11 12  2  0  0  0  0
 11 13  1  0  0  0  0
 13 14  1  0  0  0  0
 14 15  1  0  0  0  0
 15 16  1  0  0  0  0
 16 17  1  0  0  0  0
 17 18  1  0  0  0  0
 18 19  1  0  0  0  0
 18 23  1  0  0  0  0
 19 20  1  0  0  0  0
 20 21  1  0  0  0  0
 21 22  1  0  0  0  0
 21 24  1  0  0  0  0
 22 23  1  0  0  0  0
 24 25  4  0  0  0  0
 24 30  4  0  0  0  0
 25 26  4  0  0  0  0
 26 27  4  0  0  0  0
 27 28  4  0  0  0  0
 28 29  1  0  0  0  0
 28 30  4  0  0  0  0
 30 31  1  0  0  0  0
M  END
>  <Name_Molregno>
307293

>  <DOPAMINE D2>
5.93

>  <DOPAMINE D3>
8.52

>  <DOPAMINE D4>
5.71

$$$$
307304
  Marvin  02231216192D 0   1.00000     0.00000     0

 27 29  0  0  0  0  0  0  0  0999 V2000
    0.8654    2.2458    0.0000 I   0  0  0  0  0  0  0  0  0
    1.2010    1.4921    0.0000 C   0  0  0  0  0  0  0  0  0
    2.0079    1.3206    0.0000 S   0  0  0  0  0  0  0  0  0
    2.0942    0.5001    0.0000 C   0  0  0  0  0  0  0  0  0
    1.3405    0.1646    0.0000 C   0  0  0  0  0  0  0  0  0
    0.7885    0.7777    0.0000 C   0  0  0  0  0  0  0  0  0
    2.8086    0.0876    0.0000 C   0  0  0  0  0  0  0  0  0
    2.8086   -0.7374    0.0000 O   0  0  0  0  0  0  0  0  0
    3.5231    0.5001    0.0000 N   0  0  0  0  0  0  0  0  0
    4.2376    0.0876    0.0000 C   0  0  0  0  0  0  0  0  0
    4.9521    0.5001    0.0000 C   0  0  0  0  0  0  0  0  0
    5.6665    0.0876    0.0000 C   0  0  0  0  0  0  0  0  0
    6.3810    0.5001    0.0000 C   0  0  0  0  0  0  0  0  0
    7.0955    0.0876    0.0000 N   0  0  0  0  0  0  0  0  0
    7.8099    0.5001    0.0000 C   0  0  0  0  0  0  0  0  0
    8.5244    0.0876    0.0000 C   0  0  0  0  0  0  0  0  0
    8.5244   -0.7374    0.0000 N   0  0  0  0  0  0  0  0  0
    7.8099   -1.1499    0.0000 C   0  0  0  0  0  0  0  0  0
    7.0955   -0.7374    0.0000 C   0  0  0  0  0  0  0  0  0
    9.2389   -1.1499    0.0000 C   0  0  0  0  0  0  0  0  0
    9.9534   -0.7374    0.0000 C   0  0  0  0  0  0  0  0  0
   10.6678   -1.1499    0.0000 C   0  0  0  0  0  0  0  0  0
   10.6678   -1.9749    0.0000 C   0  0  0  0  0  0  0  0  0
    9.9534   -2.3874    0.0000 C   0  0  0  0  0  0  0  0  0
    9.9534   -3.2124    0.0000 Cl  0  0  0  0  0  0  0  0  0
    9.2389   -1.9749    0.0000 C   0  0  0  0  0  0  0  0  0
    8.5244   -2.3874    0.0000 Cl  0  0  0  0  0  0  0  0  0
  1  2  1  0  0  0  0
  2  3  4  0  0  0  0
  2  6  4  0  0  0  0
  3  4  4  0  0  0  0
  4  5  4  0  0  0  0
  4  7  1  0  0  0  0
  5  6  4  0  0  0  0
  7  8  2  0  0  0  0
  7  9  1  0  0  0  0
  9 10  1  0  0  0  0
 10 11  1  0  0  0  0
 11 12  1  0  0  0  0
 12 13  1  0  0  0  0
 13 14  1  0  0  0  0
 14 15  1  0  0  0  0
 14 19  1  0  0  0  0
 15 16  1  0  0  0  0
 16 17  1  0  0  0  0
 17 18  1  0  0  0  0
 17 20  1  0  0  0  0
 18 19  1  0  0  0  0
 20 21  4  0  0  0  0
 20 26  4  0  0  0  0
 21 22  4  0  0  0  0
 22 23  4  0  0  0  0
 23 24  4  0  0  0  0
 24 25  1  0  0  0  0
 24 26  4  0  0  0  0
 26 27  1  0  0  0  0
M  END
>  <Name_Molregno>
307304

>  <DOPAMINE D2>
7.27

>  <DOPAMINE D3>
8.85

>  <DOPAMINE D4>
6.89

$$$$
307319
  Marvin  02231216192D 0   1.00000     0.00000     0

 31 34  0  0  0  0  0  0  0  0999 V2000
    0.8720    2.5321    0.0000 I   0  0  0  0  0  0  0  0  0
    1.2845    1.8177    0.0000 C   0  0  0  0  0  0  0  0  0
    2.1095    1.8177    0.0000 C   0  0  0  0  0  0  0  0  0
    2.5220    1.1032    0.0000 C   0  0  0  0  0  0  0  0  0
    3.3290    0.9317    0.0000 C   0  0  0  0  0  0  0  0  0
    3.4152    0.1112    0.0000 C   0  0  0  0  0  0  0  0  0
    2.6615   -0.2244    0.0000 O   0  0  0  0  0  0  0  0  0
    2.1095    0.3887    0.0000 C   0  0  0  0  0  0  0  0  0
    1.2845    0.3887    0.0000 C   0  0  0  0  0  0  0  0  0
    0.8720    1.1032    0.0000 C   0  0  0  0  0  0  0  0  0
    4.1297   -0.3013    0.0000 C   0  0  0  0  0  0  0  0  0
    4.1297   -1.1263    0.0000 O   0  0  0  0  0  0  0  0  0
    4.8441    0.1112    0.0000 N   0  0  0  0  0  0  0  0  0
    5.5586   -0.3013    0.0000 C   0  0  0  0  0  0  0  0  0
    6.2731    0.1112    0.0000 C   0  0  0  0  0  0  0  0  0
    6.9875   -0.3013    0.0000 C   0  0  0  0  0  0  0  0  0
    7.7020    0.1112    0.0000 C   0  0  0  0  0  0  0  0  0
    8.4165   -0.3013    0.0000 N   0  0  0  0  0  0  0  0  0
    9.1310    0.1112    0.0000 C   0  0  0  0  0  0  0  0  0
    9.8454   -0.3013    0.0000 C   0  0  0  0  0  0  0  0  0
    9.8454   -1.1263    0.0000 N   0  0  0  0  0  0  0  0  0
    9.1310   -1.5388    0.0000 C   0  0  0  0  0  0  0  0  0
    8.4165   -1.1263    0.0000 C   0  0  0  0  0  0  0  0  0
   10.5599   -1.5388    0.0000 C   0  0  0  0  0  0  0  0  0
   11.2744   -1.1263    0.0000 C   0  0  0  0  0  0  0  0  0
   11.9888   -1.5388    0.0000 C   0  0  0  0  0  0  0  0  0
   11.9888   -2.3638    0.0000 C   0  0  0  0  0  0  0  0  0
   11.2744   -2.7763    0.0000 C   0  0  0  0  0  0  0  0  0
   10.5599   -2.3638    0.0000 C   0  0  0  0  0  0  0  0  0
    9.8454   -2.7763    0.0000 O   0  0  0  0  0  0  0  0  0
    9.8454   -3.6013    0.0000 C   0  0  0  0  0  0  0  0  0
  1  2  1  0  0  0  0
  2  3  4  0  0  0  0
  2 10  4  0  0  0  0
  3  4  4  0  0  0  0
  4  5  4  0  0  0  0
  4  8  4  0  0  0  0
  5  6  4  0  0  0  0
  6  7  4  0  0  0  0
  6 11  1  0  0  0  0
  7  8  4  0  0  0  0
  8  9  4  0  0  0  0
  9 10  4  0  0  0  0
 11 12  2  0  0  0  0
 11 13  1  0  0  0  0
 13 14  1  0  0  0  0
 14 15  1  0  0  0  0
 15 16  1  0  0  0  0
 16 17  1  0  0  0  0
 17 18  1  0  0  0  0
 18 19  1  0  0  0  0
 18 23  1  0  0  0  0
 19 20  1  0  0  0  0
 20 21  1  0  0  0  0
 21 22  1  0  0  0  0
 21 24  1  0  0  0  0
 22 23  1  0  0  0  0
 24 25  4  0  0  0  0
 24 29  4  0  0  0  0
 25 26  4  0  0  0  0
 26 27  4  0  0  0  0
 27 28  4  0  0  0  0
 28 29  4  0  0  0  0
 29 30  1  0  0  0  0
 30 31  1  0  0  0  0
M  END
>  <Name_Molregno>
307319

>  <DOPAMINE D2>
7.4

>  <DOPAMINE D3>
9

>  <DOPAMINE D4>
6.91

$$$$
307331
  Marvin  02231216192D 0   1.00000     0.00000     0

 31 34  0  0  0  0  0  0  0  0999 V2000
    0.8327    2.2710    0.0000 I   0  0  0  0  0  0  0  0  0
    1.2452    1.5565    0.0000 C   0  0  0  0  0  0  0  0  0
    2.0702    1.5565    0.0000 C   0  0  0  0  0  0  0  0  0
    2.4827    0.8421    0.0000 C   0  0  0  0  0  0  0  0  0
    3.2897    0.6705    0.0000 C   0  0  0  0  0  0  0  0  0
    3.3760   -0.1499    0.0000 C   0  0  0  0  0  0  0  0  0
    2.6223   -0.4855    0.0000 S   0  0  0  0  0  0  0  0  0
    2.0702    0.1276    0.0000 C   0  0  0  0  0  0  0  0  0
    1.2452    0.1276    0.0000 C   0  0  0  0  0  0  0  0  0
    0.8327    0.8421    0.0000 C   0  0  0  0  0  0  0  0  0
    4.0904   -0.5624    0.0000 C   0  0  0  0  0  0  0  0  0
    4.0904   -1.3874    0.0000 O   0  0  0  0  0  0  0  0  0
    4.8049   -0.1499    0.0000 N   0  0  0  0  0  0  0  0  0
    5.5194   -0.5624    0.0000 C   0  0  0  0  0  0  0  0  0
    6.2338   -0.1499    0.0000 C   0  0  0  0  0  0  0  0  0
    6.9483   -0.5624    0.0000 C   0  0  0  0  0  0  0  0  0
    7.6628   -0.1499    0.0000 C   0  0  0  0  0  0  0  0  0
    8.3772   -0.5624    0.0000 N   0  0  0  0  0  0  0  0  0
    9.0917   -0.1499    0.0000 C   0  0  0  0  0  0  0  0  0
    9.8062   -0.5624    0.0000 C   0  0  0  0  0  0  0  0  0
    9.8062   -1.3874    0.0000 N   0  0  0  0  0  0  0  0  0
    9.0917   -1.7999    0.0000 C   0  0  0  0  0  0  0  0  0
    8.3772   -1.3874    0.0000 C   0  0  0  0  0  0  0  0  0
   10.5207   -1.7999    0.0000 C   0  0  0  0  0  0  0  0  0
   11.2351   -1.3874    0.0000 C   0  0  0  0  0  0  0  0  0
   11.9496   -1.7999    0.0000 C   0  0  0  0  0  0  0  0  0
   11.9496   -2.6249    0.0000 C   0  0  0  0  0  0  0  0  0
   11.2351   -3.0374    0.0000 C   0  0  0  0  0  0  0  0  0
   11.2351   -3.8624    0.0000 Cl  0  0  0  0  0  0  0  0  0
   10.5207   -2.6249    0.0000 C   0  0  0  0  0  0  0  0  0
    9.8062   -3.0374    0.0000 Cl  0  0  0  0  0  0  0  0  0
  1  2  1  0  0  0  0
  2  3  4  0  0  0  0
  2 10  4  0  0  0  0
  3  4  4  0  0  0  0
  4  5  4  0  0  0  0
  4  8  4  0  0  0  0
  5  6  4  0  0  0  0
  6  7  4  0  0  0  0
  6 11  1  0  0  0  0
  7  8  4  0  0  0  0
  8  9  4  0  0  0  0
  9 10  4  0  0  0  0
 11 12  2  0  0  0  0
 11 13  1  0  0  0  0
 13 14  1  0  0  0  0
 14 15  1  0  0  0  0
 15 16  1  0  0  0  0
 16 17  1  0  0  0  0
 17 18  1  0  0  0  0
 18 19  1  0  0  0  0
 18 23  1  0  0  0  0
 19 20  1  0  0  0  0
 20 21  1  0  0  0  0
 21 22  1  0  0  0  0
 21 24  1  0  0  0  0
 22 23  1  0  0  0  0
 24 25  4  0  0  0  0
 24 30  4  0  0  0  0
 25 26  4  0  0  0  0
 26 27  4  0  0  0  0
 27 28  4  0  0  0  0
 28 29  1  0  0  0  0
 28 30  4  0  0  0  0
 30 31  1  0  0  0  0
M  END
>  <Name_Molregno>
307331

>  <DOPAMINE D2>
6.6

>  <DOPAMINE D3>
8.35

>  <DOPAMINE D4>
6.26

$$$$
307336
  Marvin  02231216192D 0   1.00000     0.00000     0

 27 29  0  0  0  0  0  0  0  0999 V2000
    0.8884    2.2835    0.0000 I   0  0  0  0  0  0  0  0  0
    1.2240    1.5298    0.0000 C   0  0  0  0  0  0  0  0  0
    2.0309    1.3583    0.0000 S   0  0  0  0  0  0  0  0  0
    2.1172    0.5378    0.0000 C   0  0  0  0  0  0  0  0  0
    1.3635    0.2023    0.0000 C   0  0  0  0  0  0  0  0  0
    0.8115    0.8154    0.0000 C   0  0  0  0  0  0  0  0  0
    2.8316    0.1253    0.0000 C   0  0  0  0  0  0  0  0  0
    2.8316   -0.6997    0.0000 O   0  0  0  0  0  0  0  0  0
    3.5461    0.5378    0.0000 N   0  0  0  0  0  0  0  0  0
    4.2606    0.1253    0.0000 C   0  0  0  0  0  0  0  0  0
    4.9751    0.5378    0.0000 C   0  0  0  0  0  0  0  0  0
    5.6895    0.1253    0.0000 C   0  0  0  0  0  0  0  0  0
    6.4040    0.5378    0.0000 C   0  0  0  0  0  0  0  0  0
    7.1185    0.1253    0.0000 N   0  0  0  0  0  0  0  0  0
    7.8329    0.5378    0.0000 C   0  0  0  0  0  0  0  0  0
    8.5474    0.1253    0.0000 C   0  0  0  0  0  0  0  0  0
    8.5474   -0.6997    0.0000 N   0  0  0  0  0  0  0  0  0
    7.8329   -1.1122    0.0000 C   0  0  0  0  0  0  0  0  0
    7.1185   -0.6997    0.0000 C   0  0  0  0  0  0  0  0  0
    9.2619   -1.1122    0.0000 C   0  0  0  0  0  0  0  0  0
    9.9764   -0.6997    0.0000 C   0  0  0  0  0  0  0  0  0
   10.6908   -1.1122    0.0000 C   0  0  0  0  0  0  0  0  0
   10.6908   -1.9372    0.0000 C   0  0  0  0  0  0  0  0  0
    9.9764   -2.3497    0.0000 C   0  0  0  0  0  0  0  0  0
    9.2619   -1.9372    0.0000 C   0  0  0  0  0  0  0  0  0
    8.5474   -2.3497    0.0000 O   0  0  0  0  0  0  0  0  0
    8.5474   -3.1747    0.0000 C   0  0  0  0  0  0  0  0  0
  1  2  1  0  0  0  0
  2  3  4  0  0  0  0
  2  6  4  0  0  0  0
  3  4  4  0  0  0  0
  4  5  4  0  0  0  0
  4  7  1  0  0  0  0
  5  6  4  0  0  0  0
  7  8  2  0  0  0  0
  7  9  1  0  0  0  0
  9 10  1  0  0  0  0
 10 11  1  0  0  0  0
 11 12  1  0  0  0  0
 12 13  1  0  0  0  0
 13 14  1  0  0  0  0
 14 15  1  0  0  0  0
 14 19  1  0  0  0  0
 15 16  1  0  0  0  0
 16 17  1  0  0  0  0
 17 18  1  0  0  0  0
 17 20  1  0  0  0  0
 18 19  1  0  0  0  0
 20 21  4  0  0  0  0
 20 25  4  0  0  0  0
 21 22  4  0  0  0  0
 22 23  4  0  0  0  0
 23 24  4  0  0  0  0
 24 25  4  0  0  0  0
 25 26  1  0  0  0  0
 26 27  1  0  0  0  0
M  END
>  <Name_Molregno>
307336

>  <DOPAMINE D2>
7.29

>  <DOPAMINE D3>
8.62

>  <DOPAMINE D4>
7.51

$$$$
307686
  Marvin  02231216192D 0   1.00000     0.00000     0

 25 27  0  0  0  0  0  0  0  0999 V2000
   -3.7603    5.2653    0.0000 O   0  0  0  0  0  0  0  0  0
   -4.4747    5.6778    0.0000 C   0  0  0  0  0  0  0  0  0
   -3.7603    4.4403    0.0000 C   0  0  0  0  0  0  0  0  0
   -3.0458    4.0278    0.0000 C   0  0  0  0  0  0  0  0  0
   -3.0458    3.2028    0.0000 C   0  0  0  0  0  0  0  0  0
   -3.7603    2.7903    0.0000 C   0  0  0  0  0  0  0  0  0
   -3.7603    1.9653    0.0000 N   0  0  0  0  0  0  0  0  0
   -3.0458    1.5528    0.0000 C   0  0  0  0  0  0  0  0  0
   -3.0458    0.7278    0.0000 C   0  0  0  0  0  0  0  0  0
   -3.7603    0.3153    0.0000 N   0  0  0  0  0  0  0  0  0
   -4.4747    0.7278    0.0000 C   0  0  0  0  0  0  0  0  0
   -4.4747    1.5528    0.0000 C   0  0  0  0  0  0  0  0  0
   -3.7603   -0.5097    0.0000 C   0  0  0  0  0  0  0  0  0
   -4.4747   -0.9222    0.0000 C   0  0  0  0  0  0  0  0  0
   -5.1892   -0.5097    0.0000 O   0  0  0  0  0  0  0  0  0
   -4.4747   -1.7472    0.0000 N   0  0  0  0  0  0  0  0  0
   -5.1892   -2.1597    0.0000 C   0  0  0  0  0  0  0  0  0
   -5.1892   -2.9847    0.0000 C   0  0  0  0  0  0  0  0  0
   -5.9037   -3.3972    0.0000 C   0  0  0  0  0  0  0  0  0
   -6.6181   -2.9847    0.0000 C   0  0  0  0  0  0  0  0  0
   -6.6181   -2.1597    0.0000 C   0  0  0  0  0  0  0  0  0
   -5.9037   -1.7472    0.0000 C   0  0  0  0  0  0  0  0  0
   -5.9037   -4.2222    0.0000 C   0  0  0  0  0  0  0  0  0
   -4.4747    3.2028    0.0000 C   0  0  0  0  0  0  0  0  0
   -4.4747    4.0278    0.0000 C   0  0  0  0  0  0  0  0  0
  1  2  1  0  0  0  0
  1  3  1  0  0  0  0
  3  4  4  0  0  0  0
  3 25  4  0  0  0  0
  4  5  4  0  0  0  0
  5  6  4  0  0  0  0
  6  7  1  0  0  0  0
  6 24  4  0  0  0  0
  7  8  1  0  0  0  0
  7 12  1  0  0  0  0
  8  9  1  0  0  0  0
  9 10  1  0  0  0  0
 10 11  1  0  0  0  0
 10 13  1  0  0  0  0
 11 12  1  0  0  0  0
 13 14  1  0  0  0  0
 14 15  2  0  0  0  0
 14 16  1  0  0  0  0
 16 17  1  0  0  0  0
 17 18  4  0  0  0  0
 17 22  4  0  0  0  0
 18 19  4  0  0  0  0
 19 20  4  0  0  0  0
 19 23  1  0  0  0  0
 20 21  4  0  0  0  0
 21 22  4  0  0  0  0
 24 25  4  0  0  0  0
M  END
>  <Name_Molregno>
307686

>  <DOPAMINE D4>
7.03

$$$$
307732
  Marvin  02231216192D 0   1.00000     0.00000     0

 25 27  0  0  0  0  0  0  0  0999 V2000
   -0.6368   -0.1353    0.0000 O   0  0  0  0  0  0  0  0  0
    0.0777    0.2772    0.0000 C   0  0  0  0  0  0  0  0  0
   -0.6368   -0.9603    0.0000 C   0  0  0  0  0  0  0  0  0
    0.0777   -1.3728    0.0000 C   0  0  0  0  0  0  0  0  0
    0.0777   -2.1978    0.0000 C   0  0  0  0  0  0  0  0  0
   -0.6368   -2.6103    0.0000 C   0  0  0  0  0  0  0  0  0
   -1.3512   -2.1978    0.0000 C   0  0  0  0  0  0  0  0  0
   -1.3512   -1.3728    0.0000 C   0  0  0  0  0  0  0  0  0
   -2.0657   -0.9603    0.0000 N   0  0  0  0  0  0  0  0  0
   -2.7802   -1.3728    0.0000 C   0  0  0  0  0  0  0  0  0
   -3.4947   -0.9603    0.0000 C   0  0  0  0  0  0  0  0  0
   -3.4947   -0.1353    0.0000 N   0  0  0  0  0  0  0  0  0
   -2.7802    0.2772    0.0000 C   0  0  0  0  0  0  0  0  0
   -2.0657   -0.1353    0.0000 C   0  0  0  0  0  0  0  0  0
   -4.2091    0.2772    0.0000 C   0  0  0  0  0  0  0  0  0
   -4.2091    1.1022    0.0000 C   0  0  0  0  0  0  0  0  0
   -3.4947    1.5147    0.0000 O   0  0  0  0  0  0  0  0  0
   -4.9236    1.5147    0.0000 N   0  0  0  0  0  0  0  0  0
   -4.9236    2.3397    0.0000 C   0  0  0  0  0  0  0  0  0
   -5.6381    2.7522    0.0000 C   0  0  0  0  0  0  0  0  0
   -5.6381    3.5772    0.0000 C   0  0  0  0  0  0  0  0  0
   -4.9236    3.9897    0.0000 C   0  0  0  0  0  0  0  0  0
   -4.2091    3.5772    0.0000 C   0  0  0  0  0  0  0  0  0
   -4.2091    2.7522    0.0000 C   0  0  0  0  0  0  0  0  0
   -6.3525    3.9897    0.0000 C   0  0  0  0  0  0  0  0  0
  1  2  1  0  0  0  0
  1  3  1  0  0  0  0
  3  4  4  0  0  0  0
  3  8  4  0  0  0  0
  4  5  4  0  0  0  0
  5  6  4  0  0  0  0
  6  7  4  0  0  0  0
  7  8  4  0  0  0  0
  8  9  1  0  0  0  0
  9 10  1  0  0  0  0
  9 14  1  0  0  0  0
 10 11  1  0  0  0  0
 11 12  1  0  0  0  0
 12 13  1  0  0  0  0
 12 15  1  0  0  0  0
 13 14  1  0  0  0  0
 15 16  1  0  0  0  0
 16 17  2  0  0  0  0
 16 18  1  0  0  0  0
 18 19  1  0  0  0  0
 19 20  4  0  0  0  0
 19 24  4  0  0  0  0
 20 21  4  0  0  0  0
 21 22  4  0  0  0  0
 21 25  1  0  0  0  0
 22 23  4  0  0  0  0
 23 24  4  0  0  0  0
M  END
>  <Name_Molregno>
307732

>  <DOPAMINE D4>
8.94

$$$$
307739
  Marvin  02231216192D 0   1.00000     0.00000     0

 30 33  0  0  0  0  0  0  0  0999 V2000
    0.6768   -1.4351    0.0000 O   0  0  0  0  0  0  0  0  0
   -0.0377   -1.0226    0.0000 C   0  0  0  0  0  0  0  0  0
   -0.7522   -1.4351    0.0000 N   0  0  0  0  0  0  0  0  0
   -0.7522   -2.2601    0.0000 C   0  0  0  0  0  0  0  0  0
   -0.0377   -2.6726    0.0000 C   0  0  0  0  0  0  0  0  0
   -0.0377   -3.4976    0.0000 C   0  0  0  0  0  0  0  0  0
   -0.7522   -3.9101    0.0000 C   0  0  0  0  0  0  0  0  0
   -1.4666   -3.4976    0.0000 C   0  0  0  0  0  0  0  0  0
   -1.4666   -2.6726    0.0000 C   0  0  0  0  0  0  0  0  0
    0.6768   -3.9101    0.0000 C   0  0  0  0  0  0  0  0  0
   -0.0377   -0.1976    0.0000 C   0  0  0  0  0  0  0  0  0
    0.6768    0.2149    0.0000 N   0  0  0  0  0  0  0  0  0
    0.6768    1.0399    0.0000 C   0  0  0  0  0  0  0  0  0
    1.3912    1.4524    0.0000 C   0  0  0  0  0  0  0  0  0
    2.1057    1.0399    0.0000 N   0  0  0  0  0  0  0  0  0
    2.1057    0.2149    0.0000 C   0  0  0  0  0  0  0  0  0
    1.3912   -0.1976    0.0000 C   0  0  0  0  0  0  0  0  0
    2.8202    1.4524    0.0000 C   0  0  0  0  0  0  0  0  0
    2.8202    2.2774    0.0000 C   0  0  0  0  0  0  0  0  0
    3.5346    2.6899    0.0000 C   0  0  0  0  0  0  0  0  0
    4.2491    2.2774    0.0000 C   0  0  0  0  0  0  0  0  0
    4.2491    1.4524    0.0000 C   0  0  0  0  0  0  0  0  0
    3.5346    1.0399    0.0000 C   0  0  0  0  0  0  0  0  0
    4.9636    2.6899    0.0000 C   0  0  0  0  0  0  0  0  0
    5.6781    2.2774    0.0000 C   0  0  0  0  0  0  0  0  0
    6.3925    2.6899    0.0000 C   0  0  0  0  0  0  0  0  0
    7.1070    2.2774    0.0000 C   0  0  0  0  0  0  0  0  0
    7.1070    1.4524    0.0000 C   0  0  0  0  0  0  0  0  0
    6.3925    1.0399    0.0000 C   0  0  0  0  0  0  0  0  0
    5.6781    1.4524    0.0000 C   0  0  0  0  0  0  0  0  0
  1  2  2  0  0  0  0
  2  3  1  0  0  0  0
  2 11  1  0  0  0  0
  3  4  1  0  0  0  0
  4  5  4  0  0  0  0
  4  9  4  0  0  0  0
  5  6  4  0  0  0  0
  6  7  4  0  0  0  0
  6 10  1  0  0  0  0
  7  8  4  0  0  0  0
  8  9  4  0  0  0  0
 11 12  1  0  0  0  0
 12 13  1  0  0  0  0
 12 17  1  0  0  0  0
 13 14  1  0  0  0  0
 14 15  1  0  0  0  0
 15 16  1  0  0  0  0
 15 18  1  0  0  0  0
 16 17  1  0  0  0  0
 18 19  4  0  0  0  0
 18 23  4  0  0  0  0
 19 20  4  0  0  0  0
 20 21  4  0  0  0  0
 21 22  4  0  0  0  0
 21 24  1  0  0  0  0
 22 23  4  0  0  0  0
 24 25  1  0  0  0  0
 25 26  4  0  0  0  0
 25 30  4  0  0  0  0
 26 27  4  0  0  0  0
 27 28  4  0  0  0  0
 28 29  4  0  0  0  0
 29 30  4  0  0  0  0
M  END
>  <Name_Molregno>
307739

>  <DOPAMINE D4>
5

$$$$
307742
  Marvin  02231216192D 0   1.00000     0.00000     0

 25 27  0  0  0  0  0  0  0  0999 V2000
   -6.5447    3.4884    0.0000 O   0  0  0  0  0  0  0  0  0
   -7.2592    3.9009    0.0000 C   0  0  0  0  0  0  0  0  0
   -6.5447    2.6634    0.0000 C   0  0  0  0  0  0  0  0  0
   -5.8302    2.2509    0.0000 C   0  0  0  0  0  0  0  0  0
   -5.8302    1.4259    0.0000 C   0  0  0  0  0  0  0  0  0
   -5.1158    1.0134    0.0000 N   0  0  0  0  0  0  0  0  0
   -4.4013    1.4259    0.0000 C   0  0  0  0  0  0  0  0  0
   -3.6868    1.0134    0.0000 C   0  0  0  0  0  0  0  0  0
   -3.6868    0.1884    0.0000 N   0  0  0  0  0  0  0  0  0
   -4.4013   -0.2241    0.0000 C   0  0  0  0  0  0  0  0  0
   -5.1158    0.1884    0.0000 C   0  0  0  0  0  0  0  0  0
   -2.9724   -0.2241    0.0000 C   0  0  0  0  0  0  0  0  0
   -2.9724   -1.0491    0.0000 C   0  0  0  0  0  0  0  0  0
   -3.6868   -1.4616    0.0000 O   0  0  0  0  0  0  0  0  0
   -2.2579   -1.4616    0.0000 N   0  0  0  0  0  0  0  0  0
   -2.2579   -2.2866    0.0000 C   0  0  0  0  0  0  0  0  0
   -1.5434   -2.6991    0.0000 C   0  0  0  0  0  0  0  0  0
   -1.5434   -3.5241    0.0000 C   0  0  0  0  0  0  0  0  0
   -2.2579   -3.9366    0.0000 C   0  0  0  0  0  0  0  0  0
   -2.9724   -3.5241    0.0000 C   0  0  0  0  0  0  0  0  0
   -2.9724   -2.6991    0.0000 C   0  0  0  0  0  0  0  0  0
   -0.8289   -3.9366    0.0000 C   0  0  0  0  0  0  0  0  0
   -6.5447    1.0134    0.0000 C   0  0  0  0  0  0  0  0  0
   -7.2592    1.4259    0.0000 C   0  0  0  0  0  0  0  0  0
   -7.2592    2.2509    0.0000 C   0  0  0  0  0  0  0  0  0
  1  2  1  0  0  0  0
  1  3  1  0  0  0  0
  3  4  4  0  0  0  0
  3 25  4  0  0  0  0
  4  5  4  0  0  0  0
  5  6  1  0  0  0  0
  5 23  4  0  0  0  0
  6  7  1  0  0  0  0
  6 11  1  0  0  0  0
  7  8  1  0  0  0  0
  8  9  1  0  0  0  0
  9 10  1  0  0  0  0
  9 12  1  0  0  0  0
 10 11  1  0  0  0  0
 12 13  1  0  0  0  0
 13 14  2  0  0  0  0
 13 15  1  0  0  0  0
 15 16  1  0  0  0  0
 16 17  4  0  0  0  0
 16 21  4  0  0  0  0
 17 18  4  0  0  0  0
 18 19  4  0  0  0  0
 18 22  1  0  0  0  0
 19 20  4  0  0  0  0
 20 21  4  0  0  0  0
 23 24  4  0  0  0  0
 24 25  4  0  0  0  0
M  END
>  <Name_Molregno>
307742

>  <DOPAMINE D4>
7.38

$$$$
307766
  Marvin  02231216192D 0   1.00000     0.00000     0

 29 32  0  0  0  0  0  0  0  0999 V2000
    0.6596   -1.4117    0.0000 O   0  0  0  0  0  0  0  0  0
   -0.0548   -0.9992    0.0000 C   0  0  0  0  0  0  0  0  0
   -0.7693   -1.4117    0.0000 N   0  0  0  0  0  0  0  0  0
   -0.7693   -2.2367    0.0000 C   0  0  0  0  0  0  0  0  0
   -0.0548   -2.6492    0.0000 C   0  0  0  0  0  0  0  0  0
   -0.0548   -3.4742    0.0000 C   0  0  0  0  0  0  0  0  0
   -0.7693   -3.8867    0.0000 C   0  0  0  0  0  0  0  0  0
   -1.4838   -3.4742    0.0000 C   0  0  0  0  0  0  0  0  0
   -1.4838   -2.6492    0.0000 C   0  0  0  0  0  0  0  0  0
    0.6596   -3.8867    0.0000 C   0  0  0  0  0  0  0  0  0
   -0.0548   -0.1742    0.0000 C   0  0  0  0  0  0  0  0  0
    0.6596    0.2383    0.0000 N   0  0  0  0  0  0  0  0  0
    0.6596    1.0633    0.0000 C   0  0  0  0  0  0  0  0  0
    1.3741    1.4758    0.0000 C   0  0  0  0  0  0  0  0  0
    2.0886    1.0633    0.0000 N   0  0  0  0  0  0  0  0  0
    2.0886    0.2383    0.0000 C   0  0  0  0  0  0  0  0  0
    1.3741   -0.1742    0.0000 C   0  0  0  0  0  0  0  0  0
    2.8031    1.4758    0.0000 C   0  0  0  0  0  0  0  0  0
    2.8031    2.3008    0.0000 C   0  0  0  0  0  0  0  0  0
    3.5175    2.7133    0.0000 C   0  0  0  0  0  0  0  0  0
    4.2320    2.3008    0.0000 C   0  0  0  0  0  0  0  0  0
    4.2320    1.4758    0.0000 C   0  0  0  0  0  0  0  0  0
    3.5175    1.0633    0.0000 C   0  0  0  0  0  0  0  0  0
    4.9465    2.7133    0.0000 C   0  0  0  0  0  0  0  0  0
    4.9465    3.5383    0.0000 C   0  0  0  0  0  0  0  0  0
    5.6609    3.9508    0.0000 C   0  0  0  0  0  0  0  0  0
    6.3754    3.5383    0.0000 C   0  0  0  0  0  0  0  0  0
    6.3754    2.7133    0.0000 C   0  0  0  0  0  0  0  0  0
    5.6609    2.3008    0.0000 C   0  0  0  0  0  0  0  0  0
  1  2  2  0  0  0  0
  2  3  1  0  0  0  0
  2 11  1  0  0  0  0
  3  4  1  0  0  0  0
  4  5  4  0  0  0  0
  4  9  4  0  0  0  0
  5  6  4  0  0  0  0
  6  7  4  0  0  0  0
  6 10  1  0  0  0  0
  7  8  4  0  0  0  0
  8  9  4  0  0  0  0
 11 12  1  0  0  0  0
 12 13  1  0  0  0  0
 12 17  1  0  0  0  0
 13 14  1  0  0  0  0
 14 15  1  0  0  0  0
 15 16  1  0  0  0  0
 15 18  1  0  0  0  0
 16 17  1  0  0  0  0
 18 19  4  0  0  0  0
 18 23  4  0  0  0  0
 19 20  4  0  0  0  0
 20 21  4  0  0  0  0
 21 22  4  0  0  0  0
 21 24  1  0  0  0  0
 22 23  4  0  0  0  0
 24 25  4  0  0  0  0
 24 29  4  0  0  0  0
 25 26  4  0  0  0  0
 26 27  4  0  0  0  0
 27 28  4  0  0  0  0
 28 29  4  0  0  0  0
M  END
>  <Name_Molregno>
307766

>  <DOPAMINE D4>
5

$$$$
307783
  Marvin  02231216192D 0   1.00000     0.00000     0

 24 26  0  0  0  0  0  0  0  0999 V2000
    5.4429    4.0688    0.0000 F   0  0  0  0  0  0  0  0  0
    5.4429    3.2438    0.0000 C   0  0  0  0  0  0  0  0  0
    6.1574    2.8313    0.0000 C   0  0  0  0  0  0  0  0  0
    6.1574    2.0063    0.0000 C   0  0  0  0  0  0  0  0  0
    5.4429    1.5938    0.0000 C   0  0  0  0  0  0  0  0  0
    5.4429    0.7688    0.0000 N   0  0  0  0  0  0  0  0  0
    6.1574    0.3563    0.0000 C   0  0  0  0  0  0  0  0  0
    6.1574   -0.4687    0.0000 C   0  0  0  0  0  0  0  0  0
    5.4429   -0.8812    0.0000 N   0  0  0  0  0  0  0  0  0
    4.7284   -0.4687    0.0000 C   0  0  0  0  0  0  0  0  0
    4.7284    0.3563    0.0000 C   0  0  0  0  0  0  0  0  0
    5.4429   -1.7062    0.0000 C   0  0  0  0  0  0  0  0  0
    4.7284   -2.1187    0.0000 C   0  0  0  0  0  0  0  0  0
    4.0140   -1.7062    0.0000 O   0  0  0  0  0  0  0  0  0
    4.7284   -2.9437    0.0000 N   0  0  0  0  0  0  0  0  0
    4.0140   -3.3562    0.0000 C   0  0  0  0  0  0  0  0  0
    4.0140   -4.1812    0.0000 C   0  0  0  0  0  0  0  0  0
    3.2995   -4.5937    0.0000 C   0  0  0  0  0  0  0  0  0
    2.5850   -4.1812    0.0000 C   0  0  0  0  0  0  0  0  0
    2.5850   -3.3562    0.0000 C   0  0  0  0  0  0  0  0  0
    3.2995   -2.9437    0.0000 C   0  0  0  0  0  0  0  0  0
    3.2995   -5.4187    0.0000 C   0  0  0  0  0  0  0  0  0
    4.7284    2.0063    0.0000 C   0  0  0  0  0  0  0  0  0
    4.7284    2.8313    0.0000 C   0  0  0  0  0  0  0  0  0
  1  2  1  0  0  0  0
  2  3  4  0  0  0  0
  2 24  4  0  0  0  0
  3  4  4  0  0  0  0
  4  5  4  0  0  0  0
  5  6  1  0  0  0  0
  5 23  4  0  0  0  0
  6  7  1  0  0  0  0
  6 11  1  0  0  0  0
  7  8  1  0  0  0  0
  8  9  1  0  0  0  0
  9 10  1  0  0  0  0
  9 12  1  0  0  0  0
 10 11  1  0  0  0  0
 12 13  1  0  0  0  0
 13 14  2  0  0  0  0
 13 15  1  0  0  0  0
 15 16  1  0  0  0  0
 16 17  4  0  0  0  0
 16 21  4  0  0  0  0
 17 18  4  0  0  0  0
 18 19  4  0  0  0  0
 18 22  1  0  0  0  0
 19 20  4  0  0  0  0
 20 21  4  0  0  0  0
 23 24  4  0  0  0  0
M  END
>  <Name_Molregno>
307783

>  <DOPAMINE D4>
7.13

$$$$
307784
  Marvin  02231216192D 0   1.00000     0.00000     0

 23 25  0  0  0  0  0  0  0  0999 V2000
    0.5028   -1.1261    0.0000 O   0  0  0  0  0  0  0  0  0
   -0.2117   -0.7136    0.0000 C   0  0  0  0  0  0  0  0  0
   -0.9261   -1.1261    0.0000 N   0  0  0  0  0  0  0  0  0
   -0.9261   -1.9511    0.0000 C   0  0  0  0  0  0  0  0  0
   -0.2117   -2.3636    0.0000 C   0  0  0  0  0  0  0  0  0
   -0.2117   -3.1886    0.0000 C   0  0  0  0  0  0  0  0  0
   -0.9261   -3.6011    0.0000 C   0  0  0  0  0  0  0  0  0
   -1.6406   -3.1886    0.0000 C   0  0  0  0  0  0  0  0  0
   -1.6406   -2.3636    0.0000 C   0  0  0  0  0  0  0  0  0
    0.5028   -3.6011    0.0000 C   0  0  0  0  0  0  0  0  0
   -0.2117    0.1114    0.0000 C   0  0  0  0  0  0  0  0  0
    0.5028    0.5239    0.0000 N   0  0  0  0  0  0  0  0  0
    0.5028    1.3489    0.0000 C   0  0  0  0  0  0  0  0  0
    1.2173    1.7614    0.0000 C   0  0  0  0  0  0  0  0  0
    1.9318    1.3489    0.0000 N   0  0  0  0  0  0  0  0  0
    1.9318    0.5239    0.0000 C   0  0  0  0  0  0  0  0  0
    1.2173    0.1114    0.0000 C   0  0  0  0  0  0  0  0  0
    2.6462    1.7614    0.0000 C   0  0  0  0  0  0  0  0  0
    2.6462    2.5864    0.0000 C   0  0  0  0  0  0  0  0  0
    3.3607    2.9989    0.0000 C   0  0  0  0  0  0  0  0  0
    4.0752    2.5864    0.0000 N   0  0  0  0  0  0  0  0  0
    4.0752    1.7614    0.0000 C   0  0  0  0  0  0  0  0  0
    3.3607    1.3489    0.0000 C   0  0  0  0  0  0  0  0  0
  1  2  2  0  0  0  0
  2  3  1  0  0  0  0
  2 11  1  0  0  0  0
  3  4  1  0  0  0  0
  4  5  4  0  0  0  0
  4  9  4  0  0  0  0
  5  6  4  0  0  0  0
  6  7  4  0  0  0  0
  6 10  1  0  0  0  0
  7  8  4  0  0  0  0
  8  9  4  0  0  0  0
 11 12  1  0  0  0  0
 12 13  1  0  0  0  0
 12 17  1  0  0  0  0
 13 14  1  0  0  0  0
 14 15  1  0  0  0  0
 15 16  1  0  0  0  0
 15 18  1  0  0  0  0
 16 17  1  0  0  0  0
 18 19  4  0  0  0  0
 18 23  4  0  0  0  0
 19 20  4  0  0  0  0
 20 21  4  0  0  0  0
 21 22  4  0  0  0  0
 22 23  4  0  0  0  0
M  STY  1   1 DAT
M  SAL   1  1  21
M  SDT   1 MRV_IMPLICIT_H                                        
M  SDD   1     0.0000    0.0000    DR    ALL  0       0  
M  SED   1 IMPL_H1
M  END
>  <Name_Molregno>
307784

>  <DOPAMINE D4>
5

$$$$
307830
  Marvin  02231216192D 0   1.00000     0.00000     0

 36 40  0  0  0  0  0  0  0  0999 V2000
    0.7744   -1.6161    0.0000 O   0  0  0  0  0  0  0  0  0
    0.0599   -1.2036    0.0000 C   0  0  0  0  0  0  0  0  0
   -0.6546   -1.6161    0.0000 N   0  0  0  0  0  0  0  0  0
   -0.6546   -2.4411    0.0000 C   0  0  0  0  0  0  0  0  0
    0.0599   -2.8536    0.0000 C   0  0  0  0  0  0  0  0  0
    0.0599   -3.6786    0.0000 C   0  0  0  0  0  0  0  0  0
   -0.6546   -4.0911    0.0000 C   0  0  0  0  0  0  0  0  0
   -1.3690   -3.6786    0.0000 C   0  0  0  0  0  0  0  0  0
   -1.3690   -2.8536    0.0000 C   0  0  0  0  0  0  0  0  0
    0.7744   -4.0911    0.0000 C   0  0  0  0  0  0  0  0  0
    0.0599   -0.3786    0.0000 C   0  0  0  0  0  0  0  0  0
    0.7744    0.0339    0.0000 N   0  0  0  0  0  0  0  0  0
    0.7744    0.8589    0.0000 C   0  0  0  0  0  0  0  0  0
    1.4889    1.2714    0.0000 C   0  0  0  0  0  0  0  0  0
    2.2033    0.8589    0.0000 N   0  0  0  0  0  0  0  0  0
    2.2033    0.0339    0.0000 C   0  0  0  0  0  0  0  0  0
    1.4889   -0.3786    0.0000 C   0  0  0  0  0  0  0  0  0
    2.9178    1.2714    0.0000 C   0  0  0  0  0  0  0  0  0
    2.9178    2.0964    0.0000 C   0  0  0  0  0  0  0  0  0
    3.6323    2.5089    0.0000 C   0  0  0  0  0  0  0  0  0
    4.3467    2.0964    0.0000 C   0  0  0  0  0  0  0  0  0
    4.3467    1.2714    0.0000 C   0  0  0  0  0  0  0  0  0
    3.6323    0.8589    0.0000 C   0  0  0  0  0  0  0  0  0
    5.0612    2.5089    0.0000 C   0  0  0  0  0  0  0  0  0
    5.7757    2.0964    0.0000 C   0  0  0  0  0  0  0  0  0
    6.4901    2.5089    0.0000 C   0  0  0  0  0  0  0  0  0
    7.2046    2.0964    0.0000 C   0  0  0  0  0  0  0  0  0
    7.2046    1.2714    0.0000 C   0  0  0  0  0  0  0  0  0
    6.4901    0.8589    0.0000 C   0  0  0  0  0  0  0  0  0
    5.7757    1.2714    0.0000 C   0  0  0  0  0  0  0  0  0
    5.0612    3.3339    0.0000 C   0  0  0  0  0  0  0  0  0
    4.3467    3.7464    0.0000 C   0  0  0  0  0  0  0  0  0
    4.3467    4.5714    0.0000 C   0  0  0  0  0  0  0  0  0
    5.0612    4.9839    0.0000 C   0  0  0  0  0  0  0  0  0
    5.7757    4.5714    0.0000 C   0  0  0  0  0  0  0  0  0
    5.7757    3.7464    0.0000 C   0  0  0  0  0  0  0  0  0
  1  2  2  0  0  0  0
  2  3  1  0  0  0  0
  2 11  1  0  0  0  0
  3  4  1  0  0  0  0
  4  5  4  0  0  0  0
  4  9  4  0  0  0  0
  5  6  4  0  0  0  0
  6  7  4  0  0  0  0
  6 10  1  0  0  0  0
  7  8  4  0  0  0  0
  8  9  4  0  0  0  0
 11 12  1  0  0  0  0
 12 13  1  0  0  0  0
 12 17  1  0  0  0  0
 13 14  1  0  0  0  0
 14 15  1  0  0  0  0
 15 16  1  0  0  0  0
 15 18  1  0  0  0  0
 16 17  1  0  0  0  0
 18 19  4  0  0  0  0
 18 23  4  0  0  0  0
 19 20  4  0  0  0  0
 20 21  4  0  0  0  0
 21 22  4  0  0  0  0
 21 24  1  0  0  0  0
 22 23  4  0  0  0  0
 24 25  1  0  0  0  0
 24 31  1  0  0  0  0
 25 26  4  0  0  0  0
 25 30  4  0  0  0  0
 26 27  4  0  0  0  0
 27 28  4  0  0  0  0
 28 29  4  0  0  0  0
 29 30  4  0  0  0  0
 31 32  4  0  0  0  0
 31 36  4  0  0  0  0
 32 33  4  0  0  0  0
 33 34  4  0  0  0  0
 34 35  4  0  0  0  0
 35 36  4  0  0  0  0
M  END
>  <Name_Molregno>
307830

>  <DOPAMINE D4>
6.76

$$$$
307948
  Marvin  02231216192D 0   1.00000     0.00000     0

 29 31  0  0  0  0  0  0  0  0999 V2000
   -2.4412   -1.2945    0.0000 Br  0  0  0  0  0  0  0  0  0
   -2.4412   -2.1195    0.0000 C   0  0  0  0  0  0  0  0  0
   -1.7267   -2.5320    0.0000 C   0  0  0  0  0  0  0  0  0
   -1.0122   -2.1195    0.0000 C   0  0  0  0  0  0  0  0  0
   -1.7267   -3.3570    0.0000 C   0  0  0  0  0  0  0  0  0
   -1.0122   -3.7695    0.0000 Br  0  0  0  0  0  0  0  0  0
   -2.4412   -3.7695    0.0000 C   0  0  0  0  0  0  0  0  0
   -3.1557   -3.3570    0.0000 C   0  0  0  0  0  0  0  0  0
   -3.8701   -3.7695    0.0000 Br  0  0  0  0  0  0  0  0  0
   -3.1557   -2.5320    0.0000 C   0  0  0  0  0  0  0  0  0
   -3.8701   -2.1195    0.0000 N   0  0  0  0  0  0  0  0  0
   -3.8701   -1.2945    0.0000 C   0  0  0  0  0  0  0  0  0
   -3.1557   -0.8820    0.0000 O   0  0  0  0  0  0  0  0  0
   -4.5846   -0.8820    0.0000 C   0  0  0  0  0  0  0  0  0
   -4.5846   -0.0570    0.0000 N   0  0  0  0  0  0  0  0  0
   -5.2991    0.3555    0.0000 C   0  0  0  0  0  0  0  0  0
   -5.2991    1.1805    0.0000 C   0  0  0  0  0  0  0  0  0
   -4.5846    1.5930    0.0000 N   0  0  0  0  0  0  0  0  0
   -3.8701    1.1805    0.0000 C   0  0  0  0  0  0  0  0  0
   -3.8701    0.3555    0.0000 C   0  0  0  0  0  0  0  0  0
   -4.5846    2.4180    0.0000 C   0  0  0  0  0  0  0  0  0
   -5.2991    2.8305    0.0000 C   0  0  0  0  0  0  0  0  0
   -5.2991    3.6555    0.0000 C   0  0  0  0  0  0  0  0  0
   -4.5846    4.0680    0.0000 C   0  0  0  0  0  0  0  0  0
   -4.5846    4.8930    0.0000 Br  0  0  0  0  0  0  0  0  0
   -3.8701    3.6555    0.0000 C   0  0  0  0  0  0  0  0  0
   -3.8701    2.8305    0.0000 C   0  0  0  0  0  0  0  0  0
   -3.1557    2.4180    0.0000 C   0  0  0  0  0  0  0  0  0
   -2.4412    2.0055    0.0000 N   0  0  0  0  0  0  0  0  0
  1  2  1  0  0  0  0
  2  3  4  0  0  0  0
  2 10  4  0  0  0  0
  3  4  1  0  0  0  0
  3  5  4  0  0  0  0
  5  6  1  0  0  0  0
  5  7  4  0  0  0  0
  7  8  4  0  0  0  0
  8  9  1  0  0  0  0
  8 10  4  0  0  0  0
 10 11  1  0  0  0  0
 11 12  1  0  0  0  0
 12 13  2  0  0  0  0
 12 14  1  0  0  0  0
 14 15  1  0  0  0  0
 15 16  1  0  0  0  0
 15 20  1  0  0  0  0
 16 17  1  0  0  0  0
 17 18  1  0  0  0  0
 18 19  1  0  0  0  0
 18 21  1  0  0  0  0
 19 20  1  0  0  0  0
 21 22  4  0  0  0  0
 21 27  4  0  0  0  0
 22 23  4  0  0  0  0
 23 24  4  0  0  0  0
 24 25  1  0  0  0  0
 24 26  4  0  0  0  0
 26 27  4  0  0  0  0
 27 28  1  0  0  0  0
 28 29  3  0  0  0  0
M  END
>  <Name_Molregno>
307948

>  <DOPAMINE D4>
6.49

$$$$
308018
  Marvin  02231216192D 0   1.00000     0.00000     0

 27 29  0  0  0  0  0  0  0  0999 V2000
    6.7829    4.7904    0.0000 Br  0  0  0  0  0  0  0  0  0
    6.7829    3.9654    0.0000 C   0  0  0  0  0  0  0  0  0
    7.4974    3.5529    0.0000 C   0  0  0  0  0  0  0  0  0
    7.4974    2.7279    0.0000 C   0  0  0  0  0  0  0  0  0
    6.7829    2.3154    0.0000 C   0  0  0  0  0  0  0  0  0
    6.7829    1.4904    0.0000 N   0  0  0  0  0  0  0  0  0
    6.0684    1.0779    0.0000 C   0  0  0  0  0  0  0  0  0
    5.3539    1.4904    0.0000 O   0  0  0  0  0  0  0  0  0
    6.0684    0.2529    0.0000 C   0  0  0  0  0  0  0  0  0
    5.3539   -0.1596    0.0000 N   0  0  0  0  0  0  0  0  0
    5.3539   -0.9846    0.0000 C   0  0  0  0  0  0  0  0  0
    4.6395   -1.3971    0.0000 C   0  0  0  0  0  0  0  0  0
    3.9250   -0.9846    0.0000 N   0  0  0  0  0  0  0  0  0
    3.9250   -0.1596    0.0000 C   0  0  0  0  0  0  0  0  0
    4.6395    0.2529    0.0000 C   0  0  0  0  0  0  0  0  0
    3.2105   -1.3971    0.0000 C   0  0  0  0  0  0  0  0  0
    3.2105   -2.2221    0.0000 C   0  0  0  0  0  0  0  0  0
    2.4961   -2.6346    0.0000 C   0  0  0  0  0  0  0  0  0
    1.7816   -2.2221    0.0000 C   0  0  0  0  0  0  0  0  0
    1.0671   -2.6346    0.0000 Br  0  0  0  0  0  0  0  0  0
    1.7816   -1.3971    0.0000 C   0  0  0  0  0  0  0  0  0
    2.4961   -0.9846    0.0000 C   0  0  0  0  0  0  0  0  0
    2.4961   -0.1596    0.0000 C   0  0  0  0  0  0  0  0  0
    2.4961    0.6654    0.0000 N   0  0  0  0  0  0  0  0  0
    6.0684    2.7279    0.0000 C   0  0  0  0  0  0  0  0  0
    6.0684    3.5529    0.0000 C   0  0  0  0  0  0  0  0  0
    5.3539    3.9654    0.0000 C   0  0  0  0  0  0  0  0  0
  1  2  1  0  0  0  0
  2  3  4  0  0  0  0
  2 26  4  0  0  0  0
  3  4  4  0  0  0  0
  4  5  4  0  0  0  0
  5  6  1  0  0  0  0
  5 25  4  0  0  0  0
  6  7  1  0  0  0  0
  7  8  2  0  0  0  0
  7  9  1  0  0  0  0
  9 10  1  0  0  0  0
 10 11  1  0  0  0  0
 10 15  1  0  0  0  0
 11 12  1  0  0  0  0
 12 13  1  0  0  0  0
 13 14  1  0  0  0  0
 13 16  1  0  0  0  0
 14 15  1  0  0  0  0
 16 17  4  0  0  0  0
 16 22  4  0  0  0  0
 17 18  4  0  0  0  0
 18 19  4  0  0  0  0
 19 20  1  0  0  0  0
 19 21  4  0  0  0  0
 21 22  4  0  0  0  0
 22 23  1  0  0  0  0
 23 24  3  0  0  0  0
 25 26  4  0  0  0  0
 26 27  1  0  0  0  0
M  END
>  <Name_Molregno>
308018

>  <DOPAMINE D4>
7.56

$$$$
308070
  Marvin  02231216192D 0   1.00000     0.00000     0

 25 27  0  0  0  0  0  0  0  0999 V2000
   -1.8258   -1.2299    0.0000 O   0  0  0  0  0  0  0  0  0
   -2.5403   -0.8174    0.0000 C   0  0  0  0  0  0  0  0  0
   -3.2548   -1.2299    0.0000 N   0  0  0  0  0  0  0  0  0
   -3.2548   -2.0549    0.0000 C   0  0  0  0  0  0  0  0  0
   -2.5403   -2.4674    0.0000 C   0  0  0  0  0  0  0  0  0
   -2.5403   -3.2924    0.0000 C   0  0  0  0  0  0  0  0  0
   -3.2548   -3.7049    0.0000 C   0  0  0  0  0  0  0  0  0
   -3.9692   -3.2924    0.0000 C   0  0  0  0  0  0  0  0  0
   -3.9692   -2.4674    0.0000 C   0  0  0  0  0  0  0  0  0
   -1.8258   -3.7049    0.0000 C   0  0  0  0  0  0  0  0  0
   -2.5403    0.0076    0.0000 C   0  0  0  0  0  0  0  0  0
   -1.8258    0.4201    0.0000 N   0  0  0  0  0  0  0  0  0
   -1.8258    1.2451    0.0000 C   0  0  0  0  0  0  0  0  0
   -1.1113    1.6576    0.0000 C   0  0  0  0  0  0  0  0  0
   -0.3969    1.2451    0.0000 N   0  0  0  0  0  0  0  0  0
   -0.3969    0.4201    0.0000 C   0  0  0  0  0  0  0  0  0
   -1.1113    0.0076    0.0000 C   0  0  0  0  0  0  0  0  0
    0.3176    1.6576    0.0000 C   0  0  0  0  0  0  0  0  0
    0.3176    2.4826    0.0000 C   0  0  0  0  0  0  0  0  0
    1.0321    2.8951    0.0000 C   0  0  0  0  0  0  0  0  0
    1.7465    2.4826    0.0000 C   0  0  0  0  0  0  0  0  0
    1.7465    1.6576    0.0000 C   0  0  0  0  0  0  0  0  0
    1.0321    1.2451    0.0000 C   0  0  0  0  0  0  0  0  0
    1.0321    0.4201    0.0000 C   0  0  0  0  0  0  0  0  0
    1.0321   -0.4049    0.0000 N   0  0  0  0  0  0  0  0  0
  1  2  2  0  0  0  0
  2  3  1  0  0  0  0
  2 11  1  0  0  0  0
  3  4  1  0  0  0  0
  4  5  4  0  0  0  0
  4  9  4  0  0  0  0
  5  6  4  0  0  0  0
  6  7  4  0  0  0  0
  6 10  1  0  0  0  0
  7  8  4  0  0  0  0
  8  9  4  0  0  0  0
 11 12  1  0  0  0  0
 12 13  1  0  0  0  0
 12 17  1  0  0  0  0
 13 14  1  0  0  0  0
 14 15  1  0  0  0  0
 15 16  1  0  0  0  0
 15 18  1  0  0  0  0
 16 17  1  0  0  0  0
 18 19  4  0  0  0  0
 18 23  4  0  0  0  0
 19 20  4  0  0  0  0
 20 21  4  0  0  0  0
 21 22  4  0  0  0  0
 22 23  4  0  0  0  0
 23 24  1  0  0  0  0
 24 25  3  0  0  0  0
M  END
>  <Name_Molregno>
308070

>  <DOPAMINE D4>
8.2

$$$$
309256
  Marvin  02231216192D 0   1.00000     0.00000     0

 26 29  0  0  1  0  0  0  0  0999 V2000
    3.9528   -4.3498    0.0000 S   0  0  0  0  0  0  0  0  0
    3.6979   -5.1344    0.0000 C   0  0  0  0  0  0  0  0  0
    2.8729   -5.1344    0.0000 C   0  0  0  0  0  0  0  0  0
    2.6180   -4.3498    0.0000 C   0  0  0  0  0  0  0  0  0
    3.2854   -3.8649    0.0000 C   0  0  0  0  0  0  0  0  0
    3.2854   -3.0399    0.0000 C   0  0  0  0  0  0  0  0  0
    2.5709   -2.6274    0.0000 C   0  0  0  0  0  0  0  0  0
    2.5709   -1.8024    0.0000 C   0  0  0  0  0  0  0  0  0
    3.2854   -1.3899    0.0000 C   0  0  0  0  0  0  0  0  0
    3.9999   -1.8024    0.0000 C   0  0  0  0  0  0  0  0  0
    3.9999   -2.6274    0.0000 C   0  0  0  0  0  0  0  0  0
    3.2854   -0.5649    0.0000 C   0  0  0  0  0  0  0  0  0
    2.5709   -0.1524    0.0000 O   0  0  0  0  0  0  0  0  0
    3.9999   -0.1524    0.0000 N   0  0  0  0  0  0  0  0  0
    3.9999    0.6726    0.0000 C   0  0  0  0  0  0  0  0  0
    3.3324    1.1576    0.0000 C   0  0  0  0  0  0  0  0  0
    3.5874    1.9422    0.0000 C   0  0  0  0  0  0  0  0  0
    4.4124    1.9422    0.0000 N   0  0  0  0  0  0  0  0  0
    4.6673    1.1576    0.0000 C   0  0  0  0  0  0  0  0  0
    4.8973    2.6096    0.0000 C   0  0  0  0  0  0  0  0  0
    5.7178    2.5234    0.0000 C   0  0  0  0  0  0  0  0  0
    6.2027    3.1908    0.0000 C   0  0  0  0  0  0  0  0  0
    7.0232    3.1046    0.0000 C   0  0  0  0  0  0  0  0  0
    7.3587    2.3509    0.0000 C   0  0  0  0  0  0  0  0  0
    6.8738    1.6835    0.0000 C   0  0  0  0  0  0  0  0  0
    6.0533    1.7697    0.0000 C   0  0  0  0  0  0  0  0  0
  1  2  4  0  0  0  0
  1  5  4  0  0  0  0
  2  3  4  0  0  0  0
  3  4  4  0  0  0  0
  4  5  4  0  0  0  0
  5  6  1  0  0  0  0
  6  7  4  0  0  0  0
  6 11  4  0  0  0  0
  7  8  4  0  0  0  0
  8  9  4  0  0  0  0
  9 10  4  0  0  0  0
  9 12  1  0  0  0  0
 10 11  4  0  0  0  0
 12 13  2  0  0  0  0
 12 14  1  0  0  0  0
 14 15  1  0  0  0  0
 15 16  1  0  0  0  0
 15 19  1  0  0  0  0
 16 17  1  0  0  0  0
 17 18  1  0  0  0  0
 18 19  1  0  0  0  0
 18 20  1  0  0  0  0
 20 21  1  0  0  0  0
 21 22  4  0  0  0  0
 21 26  4  0  0  0  0
 22 23  4  0  0  0  0
 23 24  4  0  0  0  0
 24 25  4  0  0  0  0
 25 26  4  0  0  0  0
M  END
>  <Name_Molregno>
309256

>  <5-HT2A>
8.74

>  <DOPAMINE D2>
5.98

>  <DOPAMINE D4>
8.3

$$$$
309257
  Marvin  02231216192D 0   1.00000     0.00000     0

 26 29  0  0  1  0  0  0  0  0999 V2000
   -6.2349   -4.1597    0.0000 S   0  0  0  0  0  0  0  0  0
   -6.4899   -3.3751    0.0000 C   0  0  0  0  0  0  0  0  0
   -5.8224   -2.8902    0.0000 C   0  0  0  0  0  0  0  0  0
   -5.1550   -3.3751    0.0000 C   0  0  0  0  0  0  0  0  0
   -5.4099   -4.1597    0.0000 C   0  0  0  0  0  0  0  0  0
   -5.8224   -2.0652    0.0000 C   0  0  0  0  0  0  0  0  0
   -6.5369   -1.6527    0.0000 C   0  0  0  0  0  0  0  0  0
   -6.5369   -0.8277    0.0000 C   0  0  0  0  0  0  0  0  0
   -5.8224   -0.4152    0.0000 C   0  0  0  0  0  0  0  0  0
   -5.1079   -0.8277    0.0000 C   0  0  0  0  0  0  0  0  0
   -5.1079   -1.6527    0.0000 C   0  0  0  0  0  0  0  0  0
   -5.8224    0.4098    0.0000 C   0  0  0  0  0  0  0  0  0
   -6.5369    0.8223    0.0000 O   0  0  0  0  0  0  0  0  0
   -5.1079    0.8223    0.0000 N   0  0  0  0  0  0  0  0  0
   -5.1079    1.6473    0.0000 C   0  0  0  0  0  0  0  0  0
   -5.7754    2.1322    0.0000 C   0  0  0  0  0  0  0  0  0
   -5.5204    2.9169    0.0000 C   0  0  0  0  0  0  0  0  0
   -4.6954    2.9169    0.0000 N   0  0  0  0  0  0  0  0  0
   -4.4405    2.1322    0.0000 C   0  0  0  0  0  0  0  0  0
   -4.2105    3.5843    0.0000 C   0  0  0  0  0  0  0  0  0
   -3.3900    3.4981    0.0000 C   0  0  0  0  0  0  0  0  0
   -2.9051    4.1655    0.0000 C   0  0  0  0  0  0  0  0  0
   -2.0846    4.0793    0.0000 C   0  0  0  0  0  0  0  0  0
   -1.7491    3.3256    0.0000 C   0  0  0  0  0  0  0  0  0
   -2.2340    2.6582    0.0000 C   0  0  0  0  0  0  0  0  0
   -3.0545    2.7444    0.0000 C   0  0  0  0  0  0  0  0  0
  1  2  4  0  0  0  0
  1  5  4  0  0  0  0
  2  3  4  0  0  0  0
  3  4  4  0  0  0  0
  3  6  1  0  0  0  0
  4  5  4  0  0  0  0
  6  7  4  0  0  0  0
  6 11  4  0  0  0  0
  7  8  4  0  0  0  0
  8  9  4  0  0  0  0
  9 10  4  0  0  0  0
  9 12  1  0  0  0  0
 10 11  4  0  0  0  0
 12 13  2  0  0  0  0
 12 14  1  0  0  0  0
 14 15  1  0  0  0  0
 15 16  1  0  0  0  0
 15 19  1  0  0  0  0
 16 17  1  0  0  0  0
 17 18  1  0  0  0  0
 18 19  1  0  0  0  0
 18 20  1  0  0  0  0
 20 21  1  0  0  0  0
 21 22  4  0  0  0  0
 21 26  4  0  0  0  0
 22 23  4  0  0  0  0
 23 24  4  0  0  0  0
 24 25  4  0  0  0  0
 25 26  4  0  0  0  0
M  END
>  <Name_Molregno>
309257

>  <DOPAMINE D2>
5.99

>  <DOPAMINE D4>
8.38

$$$$
309261
  Marvin  02231216192D 0   1.00000     0.00000     0

 28 31  0  0  1  0  0  0  0  0999 V2000
    6.5545    5.8421    0.0000 Cl  0  0  0  0  0  0  0  0  0
    6.5545    5.0171    0.0000 C   0  0  0  0  0  0  0  0  0
    7.2689    4.6046    0.0000 C   0  0  0  0  0  0  0  0  0
    7.2689    3.7796    0.0000 C   0  0  0  0  0  0  0  0  0
    6.5545    3.3671    0.0000 C   0  0  0  0  0  0  0  0  0
    5.8400    3.7796    0.0000 C   0  0  0  0  0  0  0  0  0
    5.8400    4.6046    0.0000 C   0  0  0  0  0  0  0  0  0
    6.5545    2.5421    0.0000 C   0  0  0  0  0  0  0  0  0
    7.2689    2.1296    0.0000 C   0  0  0  0  0  0  0  0  0
    7.2689    1.3046    0.0000 C   0  0  0  0  0  0  0  0  0
    6.5545    0.8921    0.0000 C   0  0  0  0  0  0  0  0  0
    5.8400    1.3046    0.0000 C   0  0  0  0  0  0  0  0  0
    5.8400    2.1296    0.0000 C   0  0  0  0  0  0  0  0  0
    6.5545    0.0671    0.0000 C   0  0  0  0  0  0  0  0  0
    7.2689   -0.3454    0.0000 O   0  0  0  0  0  0  0  0  0
    5.8400   -0.3454    0.0000 N   0  0  0  0  0  0  0  0  0
    5.8400   -1.1704    0.0000 C   0  0  0  0  0  0  0  0  0
    6.5074   -1.6553    0.0000 C   0  0  0  0  0  0  0  0  0
    6.2525   -2.4400    0.0000 C   0  0  0  0  0  0  0  0  0
    5.4275   -2.4400    0.0000 N   0  0  0  0  0  0  0  0  0
    5.1726   -1.6553    0.0000 C   0  0  0  0  0  0  0  0  0
    4.9426   -3.1074    0.0000 C   0  0  0  0  0  0  0  0  0
    4.1221   -3.0212    0.0000 C   0  0  0  0  0  0  0  0  0
    3.6372   -3.6886    0.0000 C   0  0  0  0  0  0  0  0  0
    2.8167   -3.6024    0.0000 C   0  0  0  0  0  0  0  0  0
    2.4811   -2.8487    0.0000 C   0  0  0  0  0  0  0  0  0
    2.9661   -2.1813    0.0000 C   0  0  0  0  0  0  0  0  0
    3.7865   -2.2675    0.0000 C   0  0  0  0  0  0  0  0  0
  1  2  1  0  0  0  0
  2  3  4  0  0  0  0
  2  7  4  0  0  0  0
  3  4  4  0  0  0  0
  4  5  4  0  0  0  0
  5  6  4  0  0  0  0
  5  8  1  0  0  0  0
  6  7  4  0  0  0  0
  8  9  4  0  0  0  0
  8 13  4  0  0  0  0
  9 10  4  0  0  0  0
 10 11  4  0  0  0  0
 11 12  4  0  0  0  0
 11 14  1  0  0  0  0
 12 13  4  0  0  0  0
 14 15  2  0  0  0  0
 14 16  1  0  0  0  0
 16 17  1  0  0  0  0
 17 18  1  0  0  0  0
 17 21  1  0  0  0  0
 18 19  1  0  0  0  0
 19 20  1  0  0  0  0
 20 21  1  0  0  0  0
 20 22  1  0  0  0  0
 22 23  1  0  0  0  0
 23 24  4  0  0  0  0
 23 28  4  0  0  0  0
 24 25  4  0  0  0  0
 25 26  4  0  0  0  0
 26 27  4  0  0  0  0
 27 28  4  0  0  0  0
M  END
>  <Name_Molregno>
309261

>  <DOPAMINE D2>
5.59

>  <DOPAMINE D4>
8.3

$$$$
309270
  Marvin  02231216192D 0   1.00000     0.00000     0

 29 32  0  0  1  0  0  0  0  0999 V2000
   -0.6544   -1.3463    0.0000 O   0  0  0  0  0  0  0  0  0
    0.0601   -0.9338    0.0000 C   0  0  0  0  0  0  0  0  0
    0.7746   -1.3463    0.0000 N   0  0  0  0  0  0  0  0  0
    0.7746   -2.1713    0.0000 C   0  0  0  0  0  0  0  0  0
    1.4420   -2.6563    0.0000 C   0  0  0  0  0  0  0  0  0
    1.1871   -3.4409    0.0000 C   0  0  0  0  0  0  0  0  0
    0.3621   -3.4409    0.0000 N   0  0  0  0  0  0  0  0  0
    0.1071   -2.6563    0.0000 C   0  0  0  0  0  0  0  0  0
   -0.1228   -4.1083    0.0000 C   0  0  0  0  0  0  0  0  0
    0.2127   -4.8620    0.0000 C   0  0  0  0  0  0  0  0  0
    1.0332   -4.9482    0.0000 C   0  0  0  0  0  0  0  0  0
    1.3688   -5.7019    0.0000 C   0  0  0  0  0  0  0  0  0
    0.8838   -6.3693    0.0000 C   0  0  0  0  0  0  0  0  0
    0.0634   -6.2831    0.0000 C   0  0  0  0  0  0  0  0  0
   -0.2722   -5.5294    0.0000 C   0  0  0  0  0  0  0  0  0
    0.0601   -0.1088    0.0000 C   0  0  0  0  0  0  0  0  0
   -0.6544    0.3037    0.0000 C   0  0  0  0  0  0  0  0  0
   -0.6544    1.1287    0.0000 C   0  0  0  0  0  0  0  0  0
    0.0601    1.5412    0.0000 C   0  0  0  0  0  0  0  0  0
    0.7746    1.1287    0.0000 C   0  0  0  0  0  0  0  0  0
    0.7746    0.3037    0.0000 C   0  0  0  0  0  0  0  0  0
    0.0601    2.3662    0.0000 C   0  0  0  0  0  0  0  0  0
   -0.6544    2.7787    0.0000 C   0  0  0  0  0  0  0  0  0
   -0.6544    3.6037    0.0000 C   0  0  0  0  0  0  0  0  0
    0.0601    4.0162    0.0000 C   0  0  0  0  0  0  0  0  0
    0.7746    3.6037    0.0000 C   0  0  0  0  0  0  0  0  0
    0.7746    2.7787    0.0000 C   0  0  0  0  0  0  0  0  0
    1.4891    2.3662    0.0000 C   0  0  0  0  0  0  0  0  0
    2.2035    2.7787    0.0000 O   0  0  0  0  0  0  0  0  0
  1  2  2  0  0  0  0
  2  3  1  0  0  0  0
  2 16  1  0  0  0  0
  3  4  1  0  0  0  0
  4  5  1  0  0  0  0
  4  8  1  0  0  0  0
  5  6  1  0  0  0  0
  6  7  1  0  0  0  0
  7  8  1  0  0  0  0
  7  9  1  0  0  0  0
  9 10  1  0  0  0  0
 10 11  4  0  0  0  0
 10 15  4  0  0  0  0
 11 12  4  0  0  0  0
 12 13  4  0  0  0  0
 13 14  4  0  0  0  0
 14 15  4  0  0  0  0
 16 17  4  0  0  0  0
 16 21  4  0  0  0  0
 17 18  4  0  0  0  0
 18 19  4  0  0  0  0
 19 20  4  0  0  0  0
 19 22  1  0  0  0  0
 20 21  4  0  0  0  0
 22 23  4  0  0  0  0
 22 27  4  0  0  0  0
 23 24  4  0  0  0  0
 24 25  4  0  0  0  0
 25 26  4  0  0  0  0
 26 27  4  0  0  0  0
 27 28  1  0  0  0  0
 28 29  2  0  0  0  0
M  END
>  <Name_Molregno>
309270

>  <DOPAMINE D2>
5.51

>  <DOPAMINE D4>
7.44

$$$$
309302
  Marvin  02231216192D 0   1.00000     0.00000     0

 28 31  0  0  1  0  0  0  0  0999 V2000
    6.5545    5.8421    0.0000 F   0  0  0  0  0  0  0  0  0
    6.5545    5.0171    0.0000 C   0  0  0  0  0  0  0  0  0
    7.2689    4.6046    0.0000 C   0  0  0  0  0  0  0  0  0
    7.2689    3.7796    0.0000 C   0  0  0  0  0  0  0  0  0
    6.5545    3.3671    0.0000 C   0  0  0  0  0  0  0  0  0
    5.8400    3.7796    0.0000 C   0  0  0  0  0  0  0  0  0
    5.8400    4.6046    0.0000 C   0  0  0  0  0  0  0  0  0
    6.5545    2.5421    0.0000 C   0  0  0  0  0  0  0  0  0
    7.2689    2.1296    0.0000 C   0  0  0  0  0  0  0  0  0
    7.2689    1.3046    0.0000 C   0  0  0  0  0  0  0  0  0
    6.5545    0.8921    0.0000 C   0  0  0  0  0  0  0  0  0
    5.8400    1.3046    0.0000 C   0  0  0  0  0  0  0  0  0
    5.8400    2.1296    0.0000 C   0  0  0  0  0  0  0  0  0
    6.5545    0.0671    0.0000 C   0  0  0  0  0  0  0  0  0
    7.2689   -0.3454    0.0000 O   0  0  0  0  0  0  0  0  0
    5.8400   -0.3454    0.0000 N   0  0  0  0  0  0  0  0  0
    5.8400   -1.1704    0.0000 C   0  0  0  0  0  0  0  0  0
    6.5074   -1.6553    0.0000 C   0  0  0  0  0  0  0  0  0
    6.2525   -2.4400    0.0000 C   0  0  0  0  0  0  0  0  0
    5.4275   -2.4400    0.0000 N   0  0  0  0  0  0  0  0  0
    5.1726   -1.6553    0.0000 C   0  0  0  0  0  0  0  0  0
    4.9426   -3.1074    0.0000 C   0  0  0  0  0  0  0  0  0
    4.1221   -3.0212    0.0000 C   0  0  0  0  0  0  0  0  0
    3.6372   -3.6886    0.0000 C   0  0  0  0  0  0  0  0  0
    2.8167   -3.6024    0.0000 C   0  0  0  0  0  0  0  0  0
    2.4811   -2.8487    0.0000 C   0  0  0  0  0  0  0  0  0
    2.9661   -2.1813    0.0000 C   0  0  0  0  0  0  0  0  0
    3.7865   -2.2675    0.0000 C   0  0  0  0  0  0  0  0  0
  1  2  1  0  0  0  0
  2  3  4  0  0  0  0
  2  7  4  0  0  0  0
  3  4  4  0  0  0  0
  4  5  4  0  0  0  0
  5  6  4  0  0  0  0
  5  8  1  0  0  0  0
  6  7  4  0  0  0  0
  8  9  4  0  0  0  0
  8 13  4  0  0  0  0
  9 10  4  0  0  0  0
 10 11  4  0  0  0  0
 11 12  4  0  0  0  0
 11 14  1  0  0  0  0
 12 13  4  0  0  0  0
 14 15  2  0  0  0  0
 14 16  1  0  0  0  0
 16 17  1  0  0  0  0
 17 18  1  0  0  0  0
 17 21  1  0  0  0  0
 18 19  1  0  0  0  0
 19 20  1  0  0  0  0
 20 21  1  0  0  0  0
 20 22  1  0  0  0  0
 22 23  1  0  0  0  0
 23 24  4  0  0  0  0
 23 28  4  0  0  0  0
 24 25  4  0  0  0  0
 25 26  4  0  0  0  0
 26 27  4  0  0  0  0
 27 28  4  0  0  0  0
M  END
>  <Name_Molregno>
309302

>  <DOPAMINE D2>
6.92

>  <DOPAMINE D4>
8.1

$$$$
309315
  Marvin  02231216192D 0   1.00000     0.00000     0

 28 31  0  0  1  0  0  0  0  0999 V2000
    7.3690    5.5838    0.0000 F   0  0  0  0  0  0  0  0  0
    6.6546    5.1713    0.0000 C   0  0  0  0  0  0  0  0  0
    6.6546    4.3463    0.0000 C   0  0  0  0  0  0  0  0  0
    5.9401    3.9338    0.0000 C   0  0  0  0  0  0  0  0  0
    5.2256    4.3463    0.0000 C   0  0  0  0  0  0  0  0  0
    5.2256    5.1713    0.0000 C   0  0  0  0  0  0  0  0  0
    5.9401    5.5838    0.0000 C   0  0  0  0  0  0  0  0  0
    5.9401    3.1088    0.0000 C   0  0  0  0  0  0  0  0  0
    6.6546    2.6963    0.0000 C   0  0  0  0  0  0  0  0  0
    6.6546    1.8713    0.0000 C   0  0  0  0  0  0  0  0  0
    5.9401    1.4588    0.0000 C   0  0  0  0  0  0  0  0  0
    5.2256    1.8713    0.0000 C   0  0  0  0  0  0  0  0  0
    5.2256    2.6963    0.0000 C   0  0  0  0  0  0  0  0  0
    5.9401    0.6338    0.0000 C   0  0  0  0  0  0  0  0  0
    6.6546    0.2213    0.0000 O   0  0  0  0  0  0  0  0  0
    5.2256    0.2213    0.0000 N   0  0  0  0  0  0  0  0  0
    5.2256   -0.6037    0.0000 C   0  0  0  0  0  0  0  0  0
    5.8931   -1.0886    0.0000 C   0  0  0  0  0  0  0  0  0
    5.6381   -1.8732    0.0000 C   0  0  0  0  0  0  0  0  0
    4.8131   -1.8732    0.0000 N   0  0  0  0  0  0  0  0  0
    4.5582   -1.0886    0.0000 C   0  0  0  0  0  0  0  0  0
    4.3282   -2.5407    0.0000 C   0  0  0  0  0  0  0  0  0
    3.5077   -2.4544    0.0000 C   0  0  0  0  0  0  0  0  0
    3.0228   -3.1219    0.0000 C   0  0  0  0  0  0  0  0  0
    2.2023   -3.0356    0.0000 C   0  0  0  0  0  0  0  0  0
    1.8668   -2.2820    0.0000 C   0  0  0  0  0  0  0  0  0
    2.3517   -1.6145    0.0000 C   0  0  0  0  0  0  0  0  0
    3.1722   -1.7008    0.0000 C   0  0  0  0  0  0  0  0  0
  1  2  1  0  0  0  0
  2  3  4  0  0  0  0
  2  7  4  0  0  0  0
  3  4  4  0  0  0  0
  4  5  4  0  0  0  0
  4  8  1  0  0  0  0
  5  6  4  0  0  0  0
  6  7  4  0  0  0  0
  8  9  4  0  0  0  0
  8 13  4  0  0  0  0
  9 10  4  0  0  0  0
 10 11  4  0  0  0  0
 11 12  4  0  0  0  0
 11 14  1  0  0  0  0
 12 13  4  0  0  0  0
 14 15  2  0  0  0  0
 14 16  1  0  0  0  0
 16 17  1  0  0  0  0
 17 18  1  0  0  0  0
 17 21  1  0  0  0  0
 18 19  1  0  0  0  0
 19 20  1  0  0  0  0
 20 21  1  0  0  0  0
 20 22  1  0  0  0  0
 22 23  1  0  0  0  0
 23 24  4  0  0  0  0
 23 28  4  0  0  0  0
 24 25  4  0  0  0  0
 25 26  4  0  0  0  0
 26 27  4  0  0  0  0
 27 28  4  0  0  0  0
M  END
>  <Name_Molregno>
309315

>  <DOPAMINE D2>
5.4

>  <DOPAMINE D4>
7.77

$$$$
309360
  Marvin  02231216192D 0   1.00000     0.00000     0

 26 29  0  0  1  0  0  0  0  0999 V2000
   -3.0426   -5.8370    0.0000 S   0  0  0  0  0  0  0  0  0
   -3.2975   -5.0524    0.0000 C   0  0  0  0  0  0  0  0  0
   -2.6301   -4.5675    0.0000 C   0  0  0  0  0  0  0  0  0
   -1.9627   -5.0524    0.0000 C   0  0  0  0  0  0  0  0  0
   -2.2176   -5.8370    0.0000 C   0  0  0  0  0  0  0  0  0
   -2.6301   -3.7425    0.0000 C   0  0  0  0  0  0  0  0  0
   -3.3446   -3.3300    0.0000 C   0  0  0  0  0  0  0  0  0
   -3.3446   -2.5050    0.0000 C   0  0  0  0  0  0  0  0  0
   -2.6301   -2.0925    0.0000 C   0  0  0  0  0  0  0  0  0
   -1.9156   -2.5050    0.0000 C   0  0  0  0  0  0  0  0  0
   -1.9156   -3.3300    0.0000 C   0  0  0  0  0  0  0  0  0
   -4.0590   -2.0925    0.0000 C   0  0  0  0  0  0  0  0  0
   -4.7735   -2.5050    0.0000 O   0  0  0  0  0  0  0  0  0
   -4.0590   -1.2675    0.0000 N   0  0  0  0  0  0  0  0  0
   -4.7735   -0.8550    0.0000 C   0  0  0  0  0  0  0  0  0
   -5.5272   -1.1905    0.0000 C   0  0  0  0  0  0  0  0  0
   -6.0792   -0.5774    0.0000 C   0  0  0  0  0  0  0  0  0
   -5.6667    0.1370    0.0000 N   0  0  0  0  0  0  0  0  0
   -4.8598   -0.0345    0.0000 C   0  0  0  0  0  0  0  0  0
   -6.0023    0.8907    0.0000 C   0  0  0  0  0  0  0  0  0
   -5.5174    1.5581    0.0000 C   0  0  0  0  0  0  0  0  0
   -5.8529    2.3118    0.0000 C   0  0  0  0  0  0  0  0  0
   -5.3680    2.9793    0.0000 C   0  0  0  0  0  0  0  0  0
   -4.5475    2.8930    0.0000 C   0  0  0  0  0  0  0  0  0
   -4.2120    2.1393    0.0000 C   0  0  0  0  0  0  0  0  0
   -4.6969    1.4719    0.0000 C   0  0  0  0  0  0  0  0  0
  1  2  4  0  0  0  0
  1  5  4  0  0  0  0
  2  3  4  0  0  0  0
  3  4  4  0  0  0  0
  3  6  1  0  0  0  0
  4  5  4  0  0  0  0
  6  7  4  0  0  0  0
  6 11  4  0  0  0  0
  7  8  4  0  0  0  0
  8  9  4  0  0  0  0
  8 12  1  0  0  0  0
  9 10  4  0  0  0  0
 10 11  4  0  0  0  0
 12 13  2  0  0  0  0
 12 14  1  0  0  0  0
 14 15  1  0  0  0  0
 15 16  1  0  0  0  0
 15 19  1  0  0  0  0
 16 17  1  0  0  0  0
 17 18  1  0  0  0  0
 18 19  1  0  0  0  0
 18 20  1  0  0  0  0
 20 21  1  0  0  0  0
 21 22  4  0  0  0  0
 21 26  4  0  0  0  0
 22 23  4  0  0  0  0
 23 24  4  0  0  0  0
 24 25  4  0  0  0  0
 25 26  4  0  0  0  0
M  END
>  <Name_Molregno>
309360

>  <DOPAMINE D2>
7.09

>  <DOPAMINE D4>
8.59

$$$$
309371
  Marvin  02231216192D 0   1.00000     0.00000     0

 29 32  0  0  1  0  0  0  0  0999 V2000
   -0.3495   -1.6176    0.0000 O   0  0  0  0  0  0  0  0  0
    0.3650   -1.2051    0.0000 C   0  0  0  0  0  0  0  0  0
    1.0795   -1.6176    0.0000 N   0  0  0  0  0  0  0  0  0
    1.0795   -2.4426    0.0000 C   0  0  0  0  0  0  0  0  0
    1.7469   -2.9275    0.0000 C   0  0  0  0  0  0  0  0  0
    1.4920   -3.7121    0.0000 C   0  0  0  0  0  0  0  0  0
    0.6670   -3.7121    0.0000 N   0  0  0  0  0  0  0  0  0
    0.4120   -2.9275    0.0000 C   0  0  0  0  0  0  0  0  0
    0.1821   -4.3795    0.0000 C   0  0  0  0  0  0  0  0  0
    0.5176   -5.1332    0.0000 C   0  0  0  0  0  0  0  0  0
    1.3381   -5.2195    0.0000 C   0  0  0  0  0  0  0  0  0
    1.6737   -5.9731    0.0000 C   0  0  0  0  0  0  0  0  0
    1.1887   -6.6406    0.0000 C   0  0  0  0  0  0  0  0  0
    0.3683   -6.5543    0.0000 C   0  0  0  0  0  0  0  0  0
    0.0327   -5.8007    0.0000 C   0  0  0  0  0  0  0  0  0
    0.3650   -0.3801    0.0000 C   0  0  0  0  0  0  0  0  0
   -0.3495    0.0324    0.0000 C   0  0  0  0  0  0  0  0  0
   -0.3495    0.8574    0.0000 C   0  0  0  0  0  0  0  0  0
    0.3650    1.2699    0.0000 C   0  0  0  0  0  0  0  0  0
    1.0795    0.8574    0.0000 C   0  0  0  0  0  0  0  0  0
    1.0795    0.0324    0.0000 C   0  0  0  0  0  0  0  0  0
    0.3650    2.0949    0.0000 C   0  0  0  0  0  0  0  0  0
   -0.3495    2.5074    0.0000 C   0  0  0  0  0  0  0  0  0
   -0.3495    3.3324    0.0000 C   0  0  0  0  0  0  0  0  0
    0.3650    3.7449    0.0000 C   0  0  0  0  0  0  0  0  0
    1.0795    3.3324    0.0000 C   0  0  0  0  0  0  0  0  0
    1.0795    2.5074    0.0000 C   0  0  0  0  0  0  0  0  0
    0.3650    4.5699    0.0000 C   0  0  0  0  0  0  0  0  0
   -0.3495    4.9824    0.0000 O   0  0  0  0  0  0  0  0  0
  1  2  2  0  0  0  0
  2  3  1  0  0  0  0
  2 16  1  0  0  0  0
  3  4  1  0  0  0  0
  4  5  1  0  0  0  0
  4  8  1  0  0  0  0
  5  6  1  0  0  0  0
  6  7  1  0  0  0  0
  7  8  1  0  0  0  0
  7  9  1  0  0  0  0
  9 10  1  0  0  0  0
 10 11  4  0  0  0  0
 10 15  4  0  0  0  0
 11 12  4  0  0  0  0
 12 13  4  0  0  0  0
 13 14  4  0  0  0  0
 14 15  4  0  0  0  0
 16 17  4  0  0  0  0
 16 21  4  0  0  0  0
 17 18  4  0  0  0  0
 18 19  4  0  0  0  0
 19 20  4  0  0  0  0
 19 22  1  0  0  0  0
 20 21  4  0  0  0  0
 22 23  4  0  0  0  0
 22 27  4  0  0  0  0
 23 24  4  0  0  0  0
 24 25  4  0  0  0  0
 25 26  4  0  0  0  0
 25 28  1  0  0  0  0
 26 27  4  0  0  0  0
 28 29  2  0  0  0  0
M  END
>  <Name_Molregno>
309371

>  <DOPAMINE D2>
5.43

>  <DOPAMINE D4>
7.15

$$$$
309452
  Marvin  02231216192D 0   1.00000     0.00000     0

 26 29  0  0  1  0  0  0  0  0999 V2000
    6.2249   -3.4249    0.0000 S   0  0  0  0  0  0  0  0  0
    5.9700   -4.2095    0.0000 C   0  0  0  0  0  0  0  0  0
    5.1450   -4.2095    0.0000 C   0  0  0  0  0  0  0  0  0
    4.8900   -3.4249    0.0000 C   0  0  0  0  0  0  0  0  0
    5.5575   -2.9400    0.0000 C   0  0  0  0  0  0  0  0  0
    5.5575   -2.1150    0.0000 C   0  0  0  0  0  0  0  0  0
    4.8430   -1.7025    0.0000 C   0  0  0  0  0  0  0  0  0
    4.8430   -0.8775    0.0000 C   0  0  0  0  0  0  0  0  0
    5.5575   -0.4650    0.0000 C   0  0  0  0  0  0  0  0  0
    6.2720   -0.8775    0.0000 C   0  0  0  0  0  0  0  0  0
    6.2720   -1.7025    0.0000 C   0  0  0  0  0  0  0  0  0
    4.1285   -0.4650    0.0000 C   0  0  0  0  0  0  0  0  0
    3.4141   -0.8775    0.0000 O   0  0  0  0  0  0  0  0  0
    4.1285    0.3600    0.0000 N   0  0  0  0  0  0  0  0  0
    3.4141    0.7725    0.0000 C   0  0  0  0  0  0  0  0  0
    2.6604    0.4370    0.0000 C   0  0  0  0  0  0  0  0  0
    2.1084    1.0501    0.0000 C   0  0  0  0  0  0  0  0  0
    2.5209    1.7645    0.0000 N   0  0  0  0  0  0  0  0  0
    3.3278    1.5930    0.0000 C   0  0  0  0  0  0  0  0  0
    2.1853    2.5182    0.0000 C   0  0  0  0  0  0  0  0  0
    2.6702    3.1856    0.0000 C   0  0  0  0  0  0  0  0  0
    2.3347    3.9393    0.0000 C   0  0  0  0  0  0  0  0  0
    2.8196    4.6068    0.0000 C   0  0  0  0  0  0  0  0  0
    3.6401    4.5205    0.0000 C   0  0  0  0  0  0  0  0  0
    3.9756    3.7668    0.0000 C   0  0  0  0  0  0  0  0  0
    3.4907    3.0994    0.0000 C   0  0  0  0  0  0  0  0  0
  1  2  4  0  0  0  0
  1  5  4  0  0  0  0
  2  3  4  0  0  0  0
  3  4  4  0  0  0  0
  4  5  4  0  0  0  0
  5  6  1  0  0  0  0
  6  7  4  0  0  0  0
  6 11  4  0  0  0  0
  7  8  4  0  0  0  0
  8  9  4  0  0  0  0
  8 12  1  0  0  0  0
  9 10  4  0  0  0  0
 10 11  4  0  0  0  0
 12 13  2  0  0  0  0
 12 14  1  0  0  0  0
 14 15  1  0  0  0  0
 15 16  1  0  0  0  0
 15 19  1  0  0  0  0
 16 17  1  0  0  0  0
 17 18  1  0  0  0  0
 18 19  1  0  0  0  0
 18 20  1  0  0  0  0
 20 21  1  0  0  0  0
 21 22  4  0  0  0  0
 21 26  4  0  0  0  0
 22 23  4  0  0  0  0
 23 24  4  0  0  0  0
 24 25  4  0  0  0  0
 25 26  4  0  0  0  0
M  END
>  <Name_Molregno>
309452

>  <5-HT2A>
6.34

>  <DOPAMINE D2>
7.22

>  <DOPAMINE D4>
8.82

$$$$
309543
  Marvin  02231216192D 0   1.00000     0.00000     0

 29 32  0  0  1  0  0  0  0  0999 V2000
   -4.5883    5.5707    0.0000 S   0  0  0  0  0  0  0  0  0
   -5.3028    5.9832    0.0000 C   0  0  0  0  0  0  0  0  0
   -4.5883    4.7457    0.0000 C   0  0  0  0  0  0  0  0  0
   -3.8738    4.3332    0.0000 C   0  0  0  0  0  0  0  0  0
   -3.8738    3.5082    0.0000 C   0  0  0  0  0  0  0  0  0
   -4.5883    3.0957    0.0000 C   0  0  0  0  0  0  0  0  0
   -5.3028    3.5082    0.0000 C   0  0  0  0  0  0  0  0  0
   -5.3028    4.3332    0.0000 C   0  0  0  0  0  0  0  0  0
   -4.5883    2.2707    0.0000 C   0  0  0  0  0  0  0  0  0
   -3.8738    1.8582    0.0000 C   0  0  0  0  0  0  0  0  0
   -3.8738    1.0332    0.0000 C   0  0  0  0  0  0  0  0  0
   -4.5883    0.6207    0.0000 C   0  0  0  0  0  0  0  0  0
   -5.3028    1.0332    0.0000 C   0  0  0  0  0  0  0  0  0
   -5.3028    1.8582    0.0000 C   0  0  0  0  0  0  0  0  0
   -4.5883   -0.2043    0.0000 C   0  0  0  0  0  0  0  0  0
   -3.8738   -0.6168    0.0000 O   0  0  0  0  0  0  0  0  0
   -5.3028   -0.6168    0.0000 N   0  0  0  0  0  0  0  0  0
   -5.3028   -1.4418    0.0000 C   0  0  0  0  0  0  0  0  0
   -4.6354   -1.9267    0.0000 C   0  0  0  0  0  0  0  0  0
   -4.8903   -2.7113    0.0000 C   0  0  0  0  0  0  0  0  0
   -5.7153   -2.7113    0.0000 N   0  0  0  0  0  0  0  0  0
   -5.9702   -1.9267    0.0000 C   0  0  0  0  0  0  0  0  0
   -6.2002   -3.3787    0.0000 C   0  0  0  0  0  0  0  0  0
   -7.0207   -3.2925    0.0000 C   0  0  0  0  0  0  0  0  0
   -7.5056   -3.9599    0.0000 C   0  0  0  0  0  0  0  0  0
   -8.3261   -3.8737    0.0000 C   0  0  0  0  0  0  0  0  0
   -8.6617   -3.1200    0.0000 C   0  0  0  0  0  0  0  0  0
   -8.1767   -2.4526    0.0000 C   0  0  0  0  0  0  0  0  0
   -7.3563   -2.5388    0.0000 C   0  0  0  0  0  0  0  0  0
  1  2  1  0  0  0  0
  1  3  1  0  0  0  0
  3  4  4  0  0  0  0
  3  8  4  0  0  0  0
  4  5  4  0  0  0  0
  5  6  4  0  0  0  0
  6  7  4  0  0  0  0
  6  9  1  0  0  0  0
  7  8  4  0  0  0  0
  9 10  4  0  0  0  0
  9 14  4  0  0  0  0
 10 11  4  0  0  0  0
 11 12  4  0  0  0  0
 12 13  4  0  0  0  0
 12 15  1  0  0  0  0
 13 14  4  0  0  0  0
 15 16  2  0  0  0  0
 15 17  1  0  0  0  0
 17 18  1  0  0  0  0
 18 19  1  0  0  0  0
 18 22  1  0  0  0  0
 19 20  1  0  0  0  0
 20 21  1  0  0  0  0
 21 22  1  0  0  0  0
 21 23  1  0  0  0  0
 23 24  1  0  0  0  0
 24 25  4  0  0  0  0
 24 29  4  0  0  0  0
 25 26  4  0  0  0  0
 26 27  4  0  0  0  0
 27 28  4  0  0  0  0
 28 29  4  0  0  0  0
M  END
>  <Name_Molregno>
309543

>  <DOPAMINE D2>
5.4

>  <DOPAMINE D4>
7.77

$$$$
309569
  Marvin  02231216192D 0   1.00000     0.00000     0

 31 34  0  0  1  0  0  0  0  0999 V2000
   -4.3068    5.3429    0.0000 F   0  0  0  0  0  0  0  0  0
   -4.3068    4.5179    0.0000 C   0  0  0  0  0  0  0  0  0
   -5.1318    4.5179    0.0000 F   0  0  0  0  0  0  0  0  0
   -3.4818    4.5179    0.0000 F   0  0  0  0  0  0  0  0  0
   -4.3068    3.6929    0.0000 C   0  0  0  0  0  0  0  0  0
   -3.5924    3.2804    0.0000 C   0  0  0  0  0  0  0  0  0
   -3.5924    2.4554    0.0000 C   0  0  0  0  0  0  0  0  0
   -4.3068    2.0429    0.0000 C   0  0  0  0  0  0  0  0  0
   -5.0213    2.4554    0.0000 C   0  0  0  0  0  0  0  0  0
   -5.0213    3.2804    0.0000 C   0  0  0  0  0  0  0  0  0
   -4.3068    1.2179    0.0000 C   0  0  0  0  0  0  0  0  0
   -3.5924    0.8054    0.0000 C   0  0  0  0  0  0  0  0  0
   -3.5924   -0.0196    0.0000 C   0  0  0  0  0  0  0  0  0
   -4.3068   -0.4321    0.0000 C   0  0  0  0  0  0  0  0  0
   -5.0213   -0.0196    0.0000 C   0  0  0  0  0  0  0  0  0
   -5.0213    0.8054    0.0000 C   0  0  0  0  0  0  0  0  0
   -4.3068   -1.2571    0.0000 C   0  0  0  0  0  0  0  0  0
   -3.5924   -1.6696    0.0000 O   0  0  0  0  0  0  0  0  0
   -5.0213   -1.6696    0.0000 N   0  0  0  0  0  0  0  0  0
   -5.0213   -2.4946    0.0000 C   0  0  0  0  0  0  0  0  0
   -4.3539   -2.9795    0.0000 C   0  0  0  0  0  0  0  0  0
   -4.6088   -3.7641    0.0000 C   0  0  0  0  0  0  0  0  0
   -5.4338   -3.7641    0.0000 N   0  0  0  0  0  0  0  0  0
   -5.6887   -2.9795    0.0000 C   0  0  0  0  0  0  0  0  0
   -5.9187   -4.4315    0.0000 C   0  0  0  0  0  0  0  0  0
   -6.7392   -4.3453    0.0000 C   0  0  0  0  0  0  0  0  0
   -7.2241   -5.0127    0.0000 C   0  0  0  0  0  0  0  0  0
   -8.0446   -4.9265    0.0000 C   0  0  0  0  0  0  0  0  0
   -8.3802   -4.1728    0.0000 C   0  0  0  0  0  0  0  0  0
   -7.8952   -3.5054    0.0000 C   0  0  0  0  0  0  0  0  0
   -7.0748   -3.5916    0.0000 C   0  0  0  0  0  0  0  0  0
  1  2  1  0  0  0  0
  2  3  1  0  0  0  0
  2  4  1  0  0  0  0
  2  5  1  0  0  0  0
  5  6  4  0  0  0  0
  5 10  4  0  0  0  0
  6  7  4  0  0  0  0
  7  8  4  0  0  0  0
  8  9  4  0  0  0  0
  8 11  1  0  0  0  0
  9 10  4  0  0  0  0
 11 12  4  0  0  0  0
 11 16  4  0  0  0  0
 12 13  4  0  0  0  0
 13 14  4  0  0  0  0
 14 15  4  0  0  0  0
 14 17  1  0  0  0  0
 15 16  4  0  0  0  0
 17 18  2  0  0  0  0
 17 19  1  0  0  0  0
 19 20  1  0  0  0  0
 20 21  1  0  0  0  0
 20 24  1  0  0  0  0
 21 22  1  0  0  0  0
 22 23  1  0  0  0  0
 23 24  1  0  0  0  0
 23 25  1  0  0  0  0
 25 26  1  0  0  0  0
 26 27  4  0  0  0  0
 26 31  4  0  0  0  0
 27 28  4  0  0  0  0
 28 29  4  0  0  0  0
 29 30  4  0  0  0  0
 30 31  4  0  0  0  0
M  END
>  <Name_Molregno>
309569

>  <DOPAMINE D2>
5.1

>  <DOPAMINE D4>
7.77

$$$$
309630
  Marvin  02231216192D 0   1.00000     0.00000     0

 27 30  0  0  1  0  0  0  0  0999 V2000
   -0.8115   -1.2356    0.0000 O   0  0  0  0  0  0  0  0  0
   -0.0970   -0.8231    0.0000 C   0  0  0  0  0  0  0  0  0
    0.6174   -1.2356    0.0000 N   0  0  0  0  0  0  0  0  0
    0.6174   -2.0606    0.0000 C   0  0  0  0  0  0  0  0  0
    1.2849   -2.5456    0.0000 C   0  0  0  0  0  0  0  0  0
    1.0299   -3.3302    0.0000 C   0  0  0  0  0  0  0  0  0
    0.2049   -3.3302    0.0000 N   0  0  0  0  0  0  0  0  0
   -0.0500   -2.5456    0.0000 C   0  0  0  0  0  0  0  0  0
   -0.2800   -3.9976    0.0000 C   0  0  0  0  0  0  0  0  0
    0.0556   -4.7513    0.0000 C   0  0  0  0  0  0  0  0  0
    0.8761   -4.8375    0.0000 C   0  0  0  0  0  0  0  0  0
    1.2116   -5.5912    0.0000 C   0  0  0  0  0  0  0  0  0
    0.7267   -6.2586    0.0000 C   0  0  0  0  0  0  0  0  0
   -0.0938   -6.1724    0.0000 C   0  0  0  0  0  0  0  0  0
   -0.4293   -5.4187    0.0000 C   0  0  0  0  0  0  0  0  0
   -0.0970    0.0019    0.0000 C   0  0  0  0  0  0  0  0  0
   -0.8115    0.4144    0.0000 C   0  0  0  0  0  0  0  0  0
   -0.8115    1.2394    0.0000 C   0  0  0  0  0  0  0  0  0
   -0.0970    1.6519    0.0000 C   0  0  0  0  0  0  0  0  0
    0.6174    1.2394    0.0000 C   0  0  0  0  0  0  0  0  0
    0.6174    0.4144    0.0000 C   0  0  0  0  0  0  0  0  0
   -0.0970    2.4769    0.0000 C   0  0  0  0  0  0  0  0  0
   -0.8115    2.8894    0.0000 C   0  0  0  0  0  0  0  0  0
   -0.8115    3.7144    0.0000 C   0  0  0  0  0  0  0  0  0
   -0.0970    4.1269    0.0000 C   0  0  0  0  0  0  0  0  0
    0.6174    3.7144    0.0000 C   0  0  0  0  0  0  0  0  0
    0.6174    2.8894    0.0000 C   0  0  0  0  0  0  0  0  0
  1  2  2  0  0  0  0
  2  3  1  0  0  0  0
  2 16  1  0  0  0  0
  3  4  1  0  0  0  0
  4  5  1  0  0  0  0
  4  8  1  0  0  0  0
  5  6  1  0  0  0  0
  6  7  1  0  0  0  0
  7  8  1  0  0  0  0
  7  9  1  0  0  0  0
  9 10  1  0  0  0  0
 10 11  4  0  0  0  0
 10 15  4  0  0  0  0
 11 12  4  0  0  0  0
 12 13  4  0  0  0  0
 13 14  4  0  0  0  0
 14 15  4  0  0  0  0
 16 17  4  0  0  0  0
 16 21  4  0  0  0  0
 17 18  4  0  0  0  0
 18 19  4  0  0  0  0
 19 20  4  0  0  0  0
 19 22  1  0  0  0  0
 20 21  4  0  0  0  0
 22 23  4  0  0  0  0
 22 27  4  0  0  0  0
 23 24  4  0  0  0  0
 24 25  4  0  0  0  0
 25 26  4  0  0  0  0
 26 27  4  0  0  0  0
M  END
>  <Name_Molregno>
309630

>  <DOPAMINE D2>
6.22

>  <DOPAMINE D4>
8.52

$$$$
309637
  Marvin  02231216192D 0   1.00000     0.00000     0

 27 30  0  0  1  0  0  0  0  0999 V2000
   -0.8921   -0.3492    0.0000 O   0  0  0  0  0  0  0  0  0
   -0.1776    0.0633    0.0000 C   0  0  0  0  0  0  0  0  0
    0.5369   -0.3492    0.0000 N   0  0  0  0  0  0  0  0  0
    0.5369   -1.1742    0.0000 C   0  0  0  0  0  0  0  0  0
    1.2043   -1.6591    0.0000 C   0  0  0  0  0  0  0  0  0
    0.9494   -2.4437    0.0000 C   0  0  0  0  0  0  0  0  0
    0.1244   -2.4437    0.0000 N   0  0  0  0  0  0  0  0  0
   -0.1306   -1.6591    0.0000 C   0  0  0  0  0  0  0  0  0
   -0.3606   -3.1112    0.0000 C   0  0  0  0  0  0  0  0  0
   -0.0250   -3.8649    0.0000 C   0  0  0  0  0  0  0  0  0
    0.7955   -3.9511    0.0000 C   0  0  0  0  0  0  0  0  0
    1.1310   -4.7048    0.0000 C   0  0  0  0  0  0  0  0  0
    0.6461   -5.3722    0.0000 C   0  0  0  0  0  0  0  0  0
   -0.1744   -5.2860    0.0000 C   0  0  0  0  0  0  0  0  0
   -0.5099   -4.5323    0.0000 C   0  0  0  0  0  0  0  0  0
   -0.1776    0.8883    0.0000 C   0  0  0  0  0  0  0  0  0
   -0.8921    1.3008    0.0000 C   0  0  0  0  0  0  0  0  0
   -0.8921    2.1258    0.0000 C   0  0  0  0  0  0  0  0  0
   -0.1776    2.5383    0.0000 C   0  0  0  0  0  0  0  0  0
    0.5369    2.1258    0.0000 C   0  0  0  0  0  0  0  0  0
    0.5369    1.3008    0.0000 C   0  0  0  0  0  0  0  0  0
   -1.6065    2.5383    0.0000 C   0  0  0  0  0  0  0  0  0
   -2.3210    2.1258    0.0000 C   0  0  0  0  0  0  0  0  0
   -3.0355    2.5383    0.0000 C   0  0  0  0  0  0  0  0  0
   -3.0355    3.3633    0.0000 C   0  0  0  0  0  0  0  0  0
   -2.3210    3.7758    0.0000 C   0  0  0  0  0  0  0  0  0
   -1.6065    3.3633    0.0000 C   0  0  0  0  0  0  0  0  0
  1  2  2  0  0  0  0
  2  3  1  0  0  0  0
  2 16  1  0  0  0  0
  3  4  1  0  0  0  0
  4  5  1  0  0  0  0
  4  8  1  0  0  0  0
  5  6  1  0  0  0  0
  6  7  1  0  0  0  0
  7  8  1  0  0  0  0
  7  9  1  0  0  0  0
  9 10  1  0  0  0  0
 10 11  4  0  0  0  0
 10 15  4  0  0  0  0
 11 12  4  0  0  0  0
 12 13  4  0  0  0  0
 13 14  4  0  0  0  0
 14 15  4  0  0  0  0
 16 17  4  0  0  0  0
 16 21  4  0  0  0  0
 17 18  4  0  0  0  0
 18 19  4  0  0  0  0
 18 22  1  0  0  0  0
 19 20  4  0  0  0  0
 20 21  4  0  0  0  0
 22 23  4  0  0  0  0
 22 27  4  0  0  0  0
 23 24  4  0  0  0  0
 24 25  4  0  0  0  0
 25 26  4  0  0  0  0
 26 27  4  0  0  0  0
M  END
>  <Name_Molregno>
309637

>  <DOPAMINE D2>
6.82

>  <DOPAMINE D4>
8.4

$$$$
309667
  Marvin  02231216192D 0   1.00000     0.00000     0

 28 31  0  0  1  0  0  0  0  0999 V2000
   -0.5545   -1.3544    0.0000 O   0  0  0  0  0  0  0  0  0
    0.1600   -0.9419    0.0000 C   0  0  0  0  0  0  0  0  0
    0.8745   -1.3544    0.0000 N   0  0  0  0  0  0  0  0  0
    0.8745   -2.1794    0.0000 C   0  0  0  0  0  0  0  0  0
    1.5419   -2.6643    0.0000 C   0  0  0  0  0  0  0  0  0
    1.2870   -3.4489    0.0000 C   0  0  0  0  0  0  0  0  0
    0.4620   -3.4489    0.0000 N   0  0  0  0  0  0  0  0  0
    0.2070   -2.6643    0.0000 C   0  0  0  0  0  0  0  0  0
   -0.0230   -4.1164    0.0000 C   0  0  0  0  0  0  0  0  0
    0.3126   -4.8701    0.0000 C   0  0  0  0  0  0  0  0  0
    1.1331   -4.9563    0.0000 C   0  0  0  0  0  0  0  0  0
    1.4686   -5.7100    0.0000 C   0  0  0  0  0  0  0  0  0
    0.9837   -6.3774    0.0000 C   0  0  0  0  0  0  0  0  0
    0.1632   -6.2912    0.0000 C   0  0  0  0  0  0  0  0  0
   -0.1723   -5.5375    0.0000 C   0  0  0  0  0  0  0  0  0
    0.1600   -0.1169    0.0000 C   0  0  0  0  0  0  0  0  0
   -0.5545    0.2956    0.0000 C   0  0  0  0  0  0  0  0  0
   -0.5545    1.1206    0.0000 C   0  0  0  0  0  0  0  0  0
    0.1600    1.5331    0.0000 C   0  0  0  0  0  0  0  0  0
    0.8745    1.1206    0.0000 C   0  0  0  0  0  0  0  0  0
    0.8745    0.2956    0.0000 C   0  0  0  0  0  0  0  0  0
    0.1600    2.3581    0.0000 C   0  0  0  0  0  0  0  0  0
   -0.5545    2.7706    0.0000 C   0  0  0  0  0  0  0  0  0
   -0.5545    3.5956    0.0000 C   0  0  0  0  0  0  0  0  0
   -1.2690    4.0081    0.0000 N   0  0  0  0  0  0  0  0  0
    0.1600    4.0081    0.0000 C   0  0  0  0  0  0  0  0  0
    0.8745    3.5956    0.0000 C   0  0  0  0  0  0  0  0  0
    0.8745    2.7706    0.0000 C   0  0  0  0  0  0  0  0  0
  1  2  2  0  0  0  0
  2  3  1  0  0  0  0
  2 16  1  0  0  0  0
  3  4  1  0  0  0  0
  4  5  1  0  0  0  0
  4  8  1  0  0  0  0
  5  6  1  0  0  0  0
  6  7  1  0  0  0  0
  7  8  1  0  0  0  0
  7  9  1  0  0  0  0
  9 10  1  0  0  0  0
 10 11  4  0  0  0  0
 10 15  4  0  0  0  0
 11 12  4  0  0  0  0
 12 13  4  0  0  0  0
 13 14  4  0  0  0  0
 14 15  4  0  0  0  0
 16 17  4  0  0  0  0
 16 21  4  0  0  0  0
 17 18  4  0  0  0  0
 18 19  4  0  0  0  0
 19 20  4  0  0  0  0
 19 22  1  0  0  0  0
 20 21  4  0  0  0  0
 22 23  4  0  0  0  0
 22 28  4  0  0  0  0
 23 24  4  0  0  0  0
 24 25  1  0  0  0  0
 24 26  4  0  0  0  0
 26 27  4  0  0  0  0
 27 28  4  0  0  0  0
M  END
>  <Name_Molregno>
309667

>  <DOPAMINE D2>
5.3

>  <DOPAMINE D4>
7.62

$$$$
311687
  Marvin  02231216192D 0   1.00000     0.00000     0

 23 25  0  0  1  0  0  0  0  0999 V2000
    6.3313    2.7251    0.0000 O   0  0  0  0  0  0  0  0  0
    6.3313    1.9001    0.0000 C   0  0  0  0  0  0  0  0  0
    5.6168    1.4876    0.0000 C   0  0  0  0  0  0  0  0  0
    4.9024    1.9001    0.0000 N   0  0  0  0  0  0  0  0  0
    4.9024    2.7251    0.0000 C   0  0  0  0  0  0  0  0  0
    5.6168    3.1376    0.0000 C   0  0  0  0  0  0  0  0  0
    5.6168    3.9626    0.0000 C   0  0  0  0  0  0  0  0  0
    4.1879    1.4876    0.0000 C   0  0  0  0  0  0  0  0  0
    4.1879    0.6626    0.0000 C   0  0  0  0  0  0  0  0  0
    3.4734    0.2501    0.0000 O   0  0  0  0  0  0  0  0  0
    3.4734   -0.5749    0.0000 C   0  0  0  0  0  0  0  0  0
    4.1879   -0.9874    0.0000 C   0  0  0  0  0  0  0  0  0
    4.1879   -1.8124    0.0000 C   0  0  0  0  0  0  0  0  0
    3.4734   -2.2249    0.0000 C   0  0  0  0  0  0  0  0  0
    2.7590   -1.8124    0.0000 C   0  0  0  0  0  0  0  0  0
    2.7590   -0.9874    0.0000 C   0  0  0  0  0  0  0  0  0
    2.0445   -0.5749    0.0000 C   0  0  0  0  0  0  0  0  0
    2.0445    0.2501    0.0000 C   0  0  0  0  0  0  0  0  0
    1.3300    0.6626    0.0000 C   0  0  0  0  0  0  0  0  0
    1.3300    1.4876    0.0000 C   0  0  0  0  0  0  0  0  0
    2.0445    1.9001    0.0000 C   0  0  0  0  0  0  0  0  0
    2.7590    1.4876    0.0000 C   0  0  0  0  0  0  0  0  0
    2.7590    0.6626    0.0000 C   0  0  0  0  0  0  0  0  0
  1  2  1  0  0  0  0
  1  6  1  0  0  0  0
  2  3  1  0  0  0  0
  3  4  1  0  0  0  0
  4  5  1  0  0  0  0
  4  8  1  0  0  0  0
  5  6  1  0  0  0  0
  6  7  1  0  0  0  0
  8  9  1  0  0  0  0
  9 10  1  0  0  0  0
 10 11  1  0  0  0  0
 11 12  4  0  0  0  0
 11 16  4  0  0  0  0
 12 13  4  0  0  0  0
 13 14  4  0  0  0  0
 14 15  4  0  0  0  0
 15 16  4  0  0  0  0
 16 17  1  0  0  0  0
 17 18  1  0  0  0  0
 18 19  4  0  0  0  0
 18 23  4  0  0  0  0
 19 20  4  0  0  0  0
 20 21  4  0  0  0  0
 21 22  4  0  0  0  0
 22 23  4  0  0  0  0
M  END
>  <Name_Molregno>
311687

>  <DOPAMINE D1>
5.78

>  <DOPAMINE D2>
5

>  <DOPAMINE D3>
5

>  <DOPAMINE D4>
5

$$$$
311694
  Marvin  02231216192D 0   1.00000     0.00000     0

 28 31  0  0  0  0  0  0  0  0999 V2000
    0.5437    1.4502    0.0000 O   0  0  0  0  0  0  0  0  0
    0.5437    0.6252    0.0000 C   0  0  0  0  0  0  0  0  0
    1.2582    0.2127    0.0000 C   0  0  0  0  0  0  0  0  0
    1.2582   -0.6123    0.0000 N   0  0  0  0  0  0  0  0  0
    1.9726   -1.0248    0.0000 C   0  0  0  0  0  0  0  0  0
    1.9726   -1.8498    0.0000 C   0  0  0  0  0  0  0  0  0
    1.2582   -2.2623    0.0000 N   0  0  0  0  0  0  0  0  0
    0.5437   -1.8498    0.0000 C   0  0  0  0  0  0  0  0  0
    0.5437   -1.0248    0.0000 C   0  0  0  0  0  0  0  0  0
    1.2582   -3.0873    0.0000 C   0  0  0  0  0  0  0  0  0
    1.9726   -3.4998    0.0000 C   0  0  0  0  0  0  0  0  0
    1.9726   -4.3248    0.0000 C   0  0  0  0  0  0  0  0  0
    1.2582   -4.7373    0.0000 C   0  0  0  0  0  0  0  0  0
    0.5437   -4.3248    0.0000 C   0  0  0  0  0  0  0  0  0
    0.5437   -3.4998    0.0000 C   0  0  0  0  0  0  0  0  0
   -0.1708    1.8627    0.0000 C   0  0  0  0  0  0  0  0  0
   -0.8852    1.4502    0.0000 C   0  0  0  0  0  0  0  0  0
   -1.5997    1.8627    0.0000 C   0  0  0  0  0  0  0  0  0
   -1.5997    2.6877    0.0000 C   0  0  0  0  0  0  0  0  0
   -0.8852    3.1002    0.0000 C   0  0  0  0  0  0  0  0  0
   -0.1708    2.6877    0.0000 C   0  0  0  0  0  0  0  0  0
    0.5437    3.1002    0.0000 C   0  0  0  0  0  0  0  0  0
    1.2582    2.6877    0.0000 C   0  0  0  0  0  0  0  0  0
    1.9726    3.1002    0.0000 C   0  0  0  0  0  0  0  0  0
    2.6871    2.6877    0.0000 C   0  0  0  0  0  0  0  0  0
    2.6871    1.8627    0.0000 C   0  0  0  0  0  0  0  0  0
    1.9726    1.4502    0.0000 C   0  0  0  0  0  0  0  0  0
    1.2582    1.8627    0.0000 C   0  0  0  0  0  0  0  0  0
  1  2  1  0  0  0  0
  1 16  1  0  0  0  0
  2  3  1  0  0  0  0
  3  4  1  0  0  0  0
  4  5  1  0  0  0  0
  4  9  1  0  0  0  0
  5  6  1  0  0  0  0
  6  7  1  0  0  0  0
  7  8  1  0  0  0  0
  7 10  1  0  0  0  0
  8  9  1  0  0  0  0
 10 11  4  0  0  0  0
 10 15  4  0  0  0  0
 11 12  4  0  0  0  0
 12 13  4  0  0  0  0
 13 14  4  0  0  0  0
 14 15  4  0  0  0  0
 16 17  4  0  0  0  0
 16 21  4  0  0  0  0
 17 18  4  0  0  0  0
 18 19  4  0  0  0  0
 19 20  4  0  0  0  0
 20 21  4  0  0  0  0
 21 22  1  0  0  0  0
 22 23  1  0  0  0  0
 23 24  4  0  0  0  0
 23 28  4  0  0  0  0
 24 25  4  0  0  0  0
 25 26  4  0  0  0  0
 26 27  4  0  0  0  0
 27 28  4  0  0  0  0
M  END
>  <Name_Molregno>
311694

>  <DOPAMINE D1>
5.83

>  <DOPAMINE D2>
5.38

>  <DOPAMINE D3>
5.54

>  <DOPAMINE D4>
5

>  <DOPAMINE D5>
6.21

$$$$
311772
  Marvin  02231216192D 0   1.00000     0.00000     0

 22 24  0  0  0  0  0  0  0  0999 V2000
   -0.1092   -0.4388    0.0000 O   0  0  0  0  0  0  0  0  0
    0.6053   -0.8513    0.0000 C   0  0  0  0  0  0  0  0  0
    1.3197   -0.4388    0.0000 C   0  0  0  0  0  0  0  0  0
    2.0342   -0.8513    0.0000 C   0  0  0  0  0  0  0  0  0
    2.7487   -0.4388    0.0000 N   0  0  0  0  0  0  0  0  0
    2.8349    0.3817    0.0000 C   0  0  0  0  0  0  0  0  0
    3.6419    0.5532    0.0000 C   0  0  0  0  0  0  0  0  0
    4.0544   -0.1612    0.0000 C   0  0  0  0  0  0  0  0  0
    3.5023   -0.7743    0.0000 C   0  0  0  0  0  0  0  0  0
   -0.8237   -0.8513    0.0000 C   0  0  0  0  0  0  0  0  0
   -0.8237   -1.6763    0.0000 C   0  0  0  0  0  0  0  0  0
   -1.5382   -2.0888    0.0000 C   0  0  0  0  0  0  0  0  0
   -2.2526   -1.6763    0.0000 C   0  0  0  0  0  0  0  0  0
   -2.2526   -0.8513    0.0000 C   0  0  0  0  0  0  0  0  0
   -1.5382   -0.4388    0.0000 C   0  0  0  0  0  0  0  0  0
   -1.5382    0.3862    0.0000 C   0  0  0  0  0  0  0  0  0
   -2.2526    0.7987    0.0000 C   0  0  0  0  0  0  0  0  0
   -2.9671    0.3862    0.0000 C   0  0  0  0  0  0  0  0  0
   -3.6816    0.7987    0.0000 C   0  0  0  0  0  0  0  0  0
   -3.6816    1.6237    0.0000 C   0  0  0  0  0  0  0  0  0
   -2.9671    2.0362    0.0000 C   0  0  0  0  0  0  0  0  0
   -2.2526    1.6237    0.0000 C   0  0  0  0  0  0  0  0  0
  1  2  1  0  0  0  0
  1 10  1  0  0  0  0
  2  3  1  0  0  0  0
  3  4  1  0  0  0  0
  4  5  1  0  0  0  0
  5  6  1  0  0  0  0
  5  9  1  0  0  0  0
  6  7  1  0  0  0  0
  7  8  1  0  0  0  0
  8  9  1  0  0  0  0
 10 11  4  0  0  0  0
 10 15  4  0  0  0  0
 11 12  4  0  0  0  0
 12 13  4  0  0  0  0
 13 14  4  0  0  0  0
 14 15  4  0  0  0  0
 15 16  1  0  0  0  0
 16 17  1  0  0  0  0
 17 18  4  0  0  0  0
 17 22  4  0  0  0  0
 18 19  4  0  0  0  0
 19 20  4  0  0  0  0
 20 21  4  0  0  0  0
 21 22  4  0  0  0  0
M  END
>  <Name_Molregno>
311772

>  <DOPAMINE D1>
6.95

>  <DOPAMINE D2>
6

>  <DOPAMINE D3>
5.53

>  <DOPAMINE D4>
5.9

>  <DOPAMINE D5>
6.95

$$$$
311773
  Marvin  02231216192D 0   1.00000     0.00000     0

 21 23  0  0  0  0  0  0  0  0999 V2000
   -0.6931    0.4024    0.0000 N   0  0  0  0  0  0  0  0  0
   -0.6931   -0.4226    0.0000 C   0  0  0  0  0  0  0  0  0
    0.0214   -0.8351    0.0000 C   0  0  0  0  0  0  0  0  0
    0.0214   -1.6601    0.0000 N   0  0  0  0  0  0  0  0  0
    0.6888   -2.1451    0.0000 C   0  0  0  0  0  0  0  0  0
    0.4339   -2.9297    0.0000 C   0  0  0  0  0  0  0  0  0
   -0.3911   -2.9297    0.0000 C   0  0  0  0  0  0  0  0  0
   -0.6460   -2.1451    0.0000 C   0  0  0  0  0  0  0  0  0
   -1.4075    0.8149    0.0000 C   0  0  0  0  0  0  0  0  0
   -2.1220    0.4024    0.0000 C   0  0  0  0  0  0  0  0  0
   -2.8365    0.8149    0.0000 C   0  0  0  0  0  0  0  0  0
   -2.8365    1.6399    0.0000 C   0  0  0  0  0  0  0  0  0
   -2.1220    2.0524    0.0000 C   0  0  0  0  0  0  0  0  0
   -1.4075    1.6399    0.0000 C   0  0  0  0  0  0  0  0  0
   -0.6931    2.0524    0.0000 C   0  0  0  0  0  0  0  0  0
    0.0214    1.6399    0.0000 C   0  0  0  0  0  0  0  0  0
    0.7359    2.0524    0.0000 C   0  0  0  0  0  0  0  0  0
    1.4503    1.6399    0.0000 C   0  0  0  0  0  0  0  0  0
    1.4503    0.8149    0.0000 C   0  0  0  0  0  0  0  0  0
    0.7359    0.4024    0.0000 C   0  0  0  0  0  0  0  0  0
    0.0214    0.8149    0.0000 C   0  0  0  0  0  0  0  0  0
  1  2  1  0  0  0  0
  1  9  1  0  0  0  0
  2  3  1  0  0  0  0
  3  4  1  0  0  0  0
  4  5  1  0  0  0  0
  4  8  1  0  0  0  0
  5  6  1  0  0  0  0
  6  7  1  0  0  0  0
  7  8  1  0  0  0  0
  9 10  4  0  0  0  0
  9 14  4  0  0  0  0
 10 11  4  0  0  0  0
 11 12  4  0  0  0  0
 12 13  4  0  0  0  0
 13 14  4  0  0  0  0
 14 15  1  0  0  0  0
 15 16  1  0  0  0  0
 16 17  4  0  0  0  0
 16 21  4  0  0  0  0
 17 18  4  0  0  0  0
 18 19  4  0  0  0  0
 19 20  4  0  0  0  0
 20 21  4  0  0  0  0
M  END
>  <Name_Molregno>
311773

>  <DOPAMINE D1>
5

>  <DOPAMINE D2>
5

>  <DOPAMINE D3>
5.33

>  <DOPAMINE D4>
5

$$$$
311934
  Marvin  02231216192D 0   1.00000     0.00000     0

 19 20  0  0  0  0  0  0  0  0999 V2000
    0.0515   -0.4871    0.0000 O   0  0  0  0  0  0  0  0  0
    0.7660   -0.8996    0.0000 C   0  0  0  0  0  0  0  0  0
    1.4804   -0.4871    0.0000 C   0  0  0  0  0  0  0  0  0
    2.1949   -0.8996    0.0000 N   0  0  0  0  0  0  0  0  0
    2.9094   -0.4871    0.0000 C   0  0  0  0  0  0  0  0  0
    2.1949   -1.7246    0.0000 C   0  0  0  0  0  0  0  0  0
   -0.6630   -0.8996    0.0000 C   0  0  0  0  0  0  0  0  0
   -0.6630   -1.7246    0.0000 C   0  0  0  0  0  0  0  0  0
   -1.3775   -2.1371    0.0000 C   0  0  0  0  0  0  0  0  0
   -2.0919   -1.7246    0.0000 C   0  0  0  0  0  0  0  0  0
   -2.0919   -0.8996    0.0000 C   0  0  0  0  0  0  0  0  0
   -1.3775   -0.4871    0.0000 C   0  0  0  0  0  0  0  0  0
   -1.3775    0.3379    0.0000 C   0  0  0  0  0  0  0  0  0
   -2.0919    0.7504    0.0000 C   0  0  0  0  0  0  0  0  0
   -2.8064    0.3379    0.0000 C   0  0  0  0  0  0  0  0  0
   -3.5209    0.7504    0.0000 C   0  0  0  0  0  0  0  0  0
   -3.5209    1.5754    0.0000 C   0  0  0  0  0  0  0  0  0
   -2.8064    1.9879    0.0000 C   0  0  0  0  0  0  0  0  0
   -2.0919    1.5754    0.0000 C   0  0  0  0  0  0  0  0  0
  1  2  1  0  0  0  0
  1  7  1  0  0  0  0
  2  3  1  0  0  0  0
  3  4  1  0  0  0  0
  4  5  1  0  0  0  0
  4  6  1  0  0  0  0
  7  8  4  0  0  0  0
  7 12  4  0  0  0  0
  8  9  4  0  0  0  0
  9 10  4  0  0  0  0
 10 11  4  0  0  0  0
 11 12  4  0  0  0  0
 12 13  1  0  0  0  0
 13 14  1  0  0  0  0
 14 15  4  0  0  0  0
 14 19  4  0  0  0  0
 15 16  4  0  0  0  0
 16 17  4  0  0  0  0
 17 18  4  0  0  0  0
 18 19  4  0  0  0  0
M  END
>  <Name_Molregno>
311934

>  <DOPAMINE D1>
6.46

>  <DOPAMINE D2>
5.56

>  <DOPAMINE D3>
5

>  <DOPAMINE D4>
5.56

>  <DOPAMINE D5>
6.38

$$$$
311955
  Marvin  02231216192D 0   1.00000     0.00000     0

 22 24  0  0  0  0  0  0  0  0999 V2000
   -0.5375    0.5150    0.0000 O   0  0  0  0  0  0  0  0  0
   -0.5375   -0.3100    0.0000 C   0  0  0  0  0  0  0  0  0
    0.1770   -0.7225    0.0000 C   0  0  0  0  0  0  0  0  0
    0.1770   -1.5475    0.0000 N   0  0  0  0  0  0  0  0  0
    0.8915   -1.9600    0.0000 C   0  0  0  0  0  0  0  0  0
    0.8915   -2.7850    0.0000 C   0  0  0  0  0  0  0  0  0
    0.1770   -3.1975    0.0000 C   0  0  0  0  0  0  0  0  0
   -0.5375   -2.7850    0.0000 C   0  0  0  0  0  0  0  0  0
   -0.5375   -1.9600    0.0000 C   0  0  0  0  0  0  0  0  0
   -1.2520    0.9275    0.0000 C   0  0  0  0  0  0  0  0  0
   -1.9664    0.5150    0.0000 C   0  0  0  0  0  0  0  0  0
   -2.6809    0.9275    0.0000 C   0  0  0  0  0  0  0  0  0
   -2.6809    1.7525    0.0000 C   0  0  0  0  0  0  0  0  0
   -1.9664    2.1650    0.0000 C   0  0  0  0  0  0  0  0  0
   -1.2520    1.7525    0.0000 C   0  0  0  0  0  0  0  0  0
   -0.5375    2.1650    0.0000 C   0  0  0  0  0  0  0  0  0
    0.1770    1.7525    0.0000 C   0  0  0  0  0  0  0  0  0
    0.8915    2.1650    0.0000 C   0  0  0  0  0  0  0  0  0
    1.6059    1.7525    0.0000 C   0  0  0  0  0  0  0  0  0
    1.6059    0.9275    0.0000 C   0  0  0  0  0  0  0  0  0
    0.8915    0.5150    0.0000 C   0  0  0  0  0  0  0  0  0
    0.1770    0.9275    0.0000 C   0  0  0  0  0  0  0  0  0
  1  2  1  0  0  0  0
  1 10  1  0  0  0  0
  2  3  1  0  0  0  0
  3  4  1  0  0  0  0
  4  5  1  0  0  0  0
  4  9  1  0  0  0  0
  5  6  1  0  0  0  0
  6  7  1  0  0  0  0
  7  8  1  0  0  0  0
  8  9  1  0  0  0  0
 10 11  4  0  0  0  0
 10 15  4  0  0  0  0
 11 12  4  0  0  0  0
 12 13  4  0  0  0  0
 13 14  4  0  0  0  0
 14 15  4  0  0  0  0
 15 16  1  0  0  0  0
 16 17  1  0  0  0  0
 17 18  4  0  0  0  0
 17 22  4  0  0  0  0
 18 19  4  0  0  0  0
 19 20  4  0  0  0  0
 20 21  4  0  0  0  0
 21 22  4  0  0  0  0
M  END
>  <Name_Molregno>
311955

>  <DOPAMINE D1>
7.47

>  <DOPAMINE D2>
5.99

>  <DOPAMINE D3>
5.11

>  <DOPAMINE D4>
5.35

>  <DOPAMINE D5>
7.37

$$$$
311956
  Marvin  02231216192D 0   1.00000     0.00000     0

 22 24  0  0  0  0  0  0  0  0999 V2000
    4.4118   -2.4938    0.0000 O   0  0  0  0  0  0  0  0  0
    3.6973   -2.0813    0.0000 C   0  0  0  0  0  0  0  0  0
    3.6973   -1.2563    0.0000 C   0  0  0  0  0  0  0  0  0
    4.4118   -0.8438    0.0000 N   0  0  0  0  0  0  0  0  0
    5.1263   -1.2563    0.0000 C   0  0  0  0  0  0  0  0  0
    5.1263   -2.0813    0.0000 C   0  0  0  0  0  0  0  0  0
    4.4118   -0.0188    0.0000 C   0  0  0  0  0  0  0  0  0
    3.6973    0.3937    0.0000 C   0  0  0  0  0  0  0  0  0
    3.6973    1.2187    0.0000 O   0  0  0  0  0  0  0  0  0
    2.9829    1.6312    0.0000 C   0  0  0  0  0  0  0  0  0
    2.2684    1.2187    0.0000 C   0  0  0  0  0  0  0  0  0
    1.5539    1.6312    0.0000 C   0  0  0  0  0  0  0  0  0
    1.5539    2.4562    0.0000 C   0  0  0  0  0  0  0  0  0
    2.2684    2.8687    0.0000 C   0  0  0  0  0  0  0  0  0
    2.9829    2.4562    0.0000 C   0  0  0  0  0  0  0  0  0
    3.6973    2.8687    0.0000 C   0  0  0  0  0  0  0  0  0
    4.4118    2.4562    0.0000 C   0  0  0  0  0  0  0  0  0
    5.1263    2.8687    0.0000 C   0  0  0  0  0  0  0  0  0
    5.8407    2.4562    0.0000 C   0  0  0  0  0  0  0  0  0
    5.8407    1.6312    0.0000 C   0  0  0  0  0  0  0  0  0
    5.1263    1.2187    0.0000 C   0  0  0  0  0  0  0  0  0
    4.4118    1.6312    0.0000 C   0  0  0  0  0  0  0  0  0
  1  2  1  0  0  0  0
  1  6  1  0  0  0  0
  2  3  1  0  0  0  0
  3  4  1  0  0  0  0
  4  5  1  0  0  0  0
  4  7  1  0  0  0  0
  5  6  1  0  0  0  0
  7  8  1  0  0  0  0
  8  9  1  0  0  0  0
  9 10  1  0  0  0  0
 10 11  4  0  0  0  0
 10 15  4  0  0  0  0
 11 12  4  0  0  0  0
 12 13  4  0  0  0  0
 13 14  4  0  0  0  0
 14 15  4  0  0  0  0
 15 16  1  0  0  0  0
 16 17  1  0  0  0  0
 17 18  4  0  0  0  0
 17 22  4  0  0  0  0
 18 19  4  0  0  0  0
 19 20  4  0  0  0  0
 20 21  4  0  0  0  0
 21 22  4  0  0  0  0
M  END
>  <Name_Molregno>
311956

>  <DOPAMINE D1>
6.7

>  <DOPAMINE D2>
5

>  <DOPAMINE D3>
5

>  <DOPAMINE D4>
5.19

>  <DOPAMINE D5>
6.44

$$$$
311980
  Marvin  02231216192D 0   1.00000     0.00000     0

 22 24  0  0  0  0  0  0  0  0999 V2000
   -0.7152    0.2427    0.0000 O   0  0  0  0  0  0  0  0  0
   -0.7152   -0.5823    0.0000 C   0  0  0  0  0  0  0  0  0
   -0.0008   -0.9948    0.0000 C   0  0  0  0  0  0  0  0  0
   -0.0008   -1.8198    0.0000 N   0  0  0  0  0  0  0  0  0
    0.6667   -2.3048    0.0000 C   0  0  0  0  0  0  0  0  0
    0.4117   -3.0894    0.0000 C   0  0  0  0  0  0  0  0  0
   -0.4133   -3.0894    0.0000 C   0  0  0  0  0  0  0  0  0
   -0.6682   -2.3048    0.0000 C   0  0  0  0  0  0  0  0  0
   -1.4297    0.6552    0.0000 C   0  0  0  0  0  0  0  0  0
   -2.1442    0.2427    0.0000 C   0  0  0  0  0  0  0  0  0
   -2.8586    0.6552    0.0000 C   0  0  0  0  0  0  0  0  0
   -2.8586    1.4802    0.0000 C   0  0  0  0  0  0  0  0  0
   -2.1442    1.8927    0.0000 C   0  0  0  0  0  0  0  0  0
   -1.4297    1.4802    0.0000 C   0  0  0  0  0  0  0  0  0
   -0.7152    1.8927    0.0000 C   0  0  0  0  0  0  0  0  0
   -0.7152    2.7177    0.0000 O   0  0  0  0  0  0  0  0  0
   -0.0008    1.4802    0.0000 C   0  0  0  0  0  0  0  0  0
    0.7137    1.8927    0.0000 C   0  0  0  0  0  0  0  0  0
    1.4282    1.4802    0.0000 C   0  0  0  0  0  0  0  0  0
    1.4282    0.6552    0.0000 C   0  0  0  0  0  0  0  0  0
    0.7137    0.2427    0.0000 C   0  0  0  0  0  0  0  0  0
   -0.0008    0.6552    0.0000 C   0  0  0  0  0  0  0  0  0
  1  2  1  0  0  0  0
  1  9  1  0  0  0  0
  2  3  1  0  0  0  0
  3  4  1  0  0  0  0
  4  5  1  0  0  0  0
  4  8  1  0  0  0  0
  5  6  1  0  0  0  0
  6  7  1  0  0  0  0
  7  8  1  0  0  0  0
  9 10  4  0  0  0  0
  9 14  4  0  0  0  0
 10 11  4  0  0  0  0
 11 12  4  0  0  0  0
 12 13  4  0  0  0  0
 13 14  4  0  0  0  0
 14 15  1  0  0  0  0
 15 16  2  0  0  0  0
 15 17  1  0  0  0  0
 17 18  4  0  0  0  0
 17 22  4  0  0  0  0
 18 19  4  0  0  0  0
 19 20  4  0  0  0  0
 20 21  4  0  0  0  0
 21 22  4  0  0  0  0
M  END
>  <Name_Molregno>
311980

>  <DOPAMINE D1>
5.78

>  <DOPAMINE D2>
5.27

>  <DOPAMINE D3>
5.62

>  <DOPAMINE D4>
5

$$$$
311981
  Marvin  02231216192D 0   1.00000     0.00000     0

 22 24  0  0  1  0  0  0  0  0999 V2000
   -0.7152    0.2427    0.0000 O   0  0  0  0  0  0  0  0  0
   -0.7152   -0.5823    0.0000 C   0  0  0  0  0  0  0  0  0
   -0.0008   -0.9948    0.0000 C   0  0  0  0  0  0  0  0  0
   -0.0008   -1.8198    0.0000 N   0  0  0  0  0  0  0  0  0
    0.6667   -2.3048    0.0000 C   0  0  0  0  0  0  0  0  0
    0.4117   -3.0894    0.0000 C   0  0  0  0  0  0  0  0  0
   -0.4133   -3.0894    0.0000 C   0  0  0  0  0  0  0  0  0
   -0.6682   -2.3048    0.0000 C   0  0  0  0  0  0  0  0  0
   -1.4297    0.6552    0.0000 C   0  0  0  0  0  0  0  0  0
   -2.1442    0.2427    0.0000 C   0  0  0  0  0  0  0  0  0
   -2.8586    0.6552    0.0000 C   0  0  0  0  0  0  0  0  0
   -2.8586    1.4802    0.0000 C   0  0  0  0  0  0  0  0  0
   -2.1442    1.8927    0.0000 C   0  0  0  0  0  0  0  0  0
   -1.4297    1.4802    0.0000 C   0  0  0  0  0  0  0  0  0
   -0.7152    1.8927    0.0000 C   0  0  0  0  0  0  0  0  0
   -0.7152    2.7177    0.0000 O   0  0  0  0  0  0  0  0  0
   -0.0008    1.4802    0.0000 C   0  0  0  0  0  0  0  0  0
    0.7137    1.8927    0.0000 C   0  0  0  0  0  0  0  0  0
    1.4282    1.4802    0.0000 C   0  0  0  0  0  0  0  0  0
    1.4282    0.6552    0.0000 C   0  0  0  0  0  0  0  0  0
    0.7137    0.2427    0.0000 C   0  0  0  0  0  0  0  0  0
   -0.0008    0.6552    0.0000 C   0  0  0  0  0  0  0  0  0
  1  2  1  0  0  0  0
  1  9  1  0  0  0  0
  2  3  1  0  0  0  0
  3  4  1  0  0  0  0
  4  5  1  0  0  0  0
  4  8  1  0  0  0  0
  5  6  1  0  0  0  0
  6  7  1  0  0  0  0
  7  8  1  0  0  0  0
  9 10  4  0  0  0  0
  9 14  4  0  0  0  0
 10 11  4  0  0  0  0
 11 12  4  0  0  0  0
 12 13  4  0  0  0  0
 13 14  4  0  0  0  0
 14 15  1  0  0  0  0
 15 16  1  0  0  0  0
 15 17  1  0  0  0  0
 17 18  4  0  0  0  0
 17 22  4  0  0  0  0
 18 19  4  0  0  0  0
 19 20  4  0  0  0  0
 20 21  4  0  0  0  0
 21 22  4  0  0  0  0
M  END
>  <Name_Molregno>
311981

>  <DOPAMINE D1>
5.58

>  <DOPAMINE D2>
5.2

>  <DOPAMINE D3>
5

>  <DOPAMINE D4>
5

$$$$
312002
  Marvin  02231216192D 0   1.00000     0.00000     0

 21 22  0  0  0  0  0  0  0  0999 V2000
    0.0162    0.4086    0.0000 O   0  0  0  0  0  0  0  0  0
    0.8412    0.4086    0.0000 C   0  0  0  0  0  0  0  0  0
    1.2537    1.1230    0.0000 C   0  0  0  0  0  0  0  0  0
    2.0787    1.1230    0.0000 N   0  0  0  0  0  0  0  0  0
    2.4912    1.8375    0.0000 C   0  0  0  0  0  0  0  0  0
    3.3162    1.8375    0.0000 C   0  0  0  0  0  0  0  0  0
    2.4912    0.4086    0.0000 C   0  0  0  0  0  0  0  0  0
    2.0787   -0.3059    0.0000 C   0  0  0  0  0  0  0  0  0
   -0.3963   -0.3059    0.0000 C   0  0  0  0  0  0  0  0  0
    0.0162   -1.0204    0.0000 C   0  0  0  0  0  0  0  0  0
   -0.3963   -1.7348    0.0000 C   0  0  0  0  0  0  0  0  0
   -1.2213   -1.7348    0.0000 C   0  0  0  0  0  0  0  0  0
   -1.6338   -1.0204    0.0000 C   0  0  0  0  0  0  0  0  0
   -1.2213   -0.3059    0.0000 C   0  0  0  0  0  0  0  0  0
   -1.6338    0.4086    0.0000 C   0  0  0  0  0  0  0  0  0
   -2.4588    0.4086    0.0000 C   0  0  0  0  0  0  0  0  0
   -2.8713   -0.3059    0.0000 C   0  0  0  0  0  0  0  0  0
   -3.6963   -0.3059    0.0000 C   0  0  0  0  0  0  0  0  0
   -4.1088    0.4086    0.0000 C   0  0  0  0  0  0  0  0  0
   -3.6963    1.1230    0.0000 C   0  0  0  0  0  0  0  0  0
   -2.8713    1.1230    0.0000 C   0  0  0  0  0  0  0  0  0
  1  2  1  0  0  0  0
  1  9  1  0  0  0  0
  2  3  1  0  0  0  0
  3  4  1  0  0  0  0
  4  5  1  0  0  0  0
  4  7  1  0  0  0  0
  5  6  1  0  0  0  0
  7  8  1  0  0  0  0
  9 10  4  0  0  0  0
  9 14  4  0  0  0  0
 10 11  4  0  0  0  0
 11 12  4  0  0  0  0
 12 13  4  0  0  0  0
 13 14  4  0  0  0  0
 14 15  1  0  0  0  0
 15 16  1  0  0  0  0
 16 17  4  0  0  0  0
 16 21  4  0  0  0  0
 17 18  4  0  0  0  0
 18 19  4  0  0  0  0
 19 20  4  0  0  0  0
 20 21  4  0  0  0  0
M  END
>  <Name_Molregno>
312002

>  <DOPAMINE D1>
5.71

>  <DOPAMINE D2>
5.69

>  <DOPAMINE D3>
5.33

>  <DOPAMINE D4>
5

$$$$
312003
  Marvin  02231216192D 0   1.00000     0.00000     0

 21 23  0  0  0  0  0  0  0  0999 V2000
   -0.6931    0.4024    0.0000 O   0  0  0  0  0  0  0  0  0
   -0.6931   -0.4226    0.0000 C   0  0  0  0  0  0  0  0  0
    0.0214   -0.8351    0.0000 C   0  0  0  0  0  0  0  0  0
    0.0214   -1.6601    0.0000 N   0  0  0  0  0  0  0  0  0
    0.6888   -2.1451    0.0000 C   0  0  0  0  0  0  0  0  0
    0.4339   -2.9297    0.0000 C   0  0  0  0  0  0  0  0  0
   -0.3911   -2.9297    0.0000 C   0  0  0  0  0  0  0  0  0
   -0.6460   -2.1451    0.0000 C   0  0  0  0  0  0  0  0  0
   -1.4075    0.8149    0.0000 C   0  0  0  0  0  0  0  0  0
   -2.1220    0.4024    0.0000 C   0  0  0  0  0  0  0  0  0
   -2.8365    0.8149    0.0000 C   0  0  0  0  0  0  0  0  0
   -2.8365    1.6399    0.0000 C   0  0  0  0  0  0  0  0  0
   -2.1220    2.0524    0.0000 C   0  0  0  0  0  0  0  0  0
   -1.4075    1.6399    0.0000 C   0  0  0  0  0  0  0  0  0
   -0.6931    2.0524    0.0000 C   0  0  0  0  0  0  0  0  0
    0.0214    1.6399    0.0000 C   0  0  0  0  0  0  0  0  0
    0.7359    2.0524    0.0000 C   0  0  0  0  0  0  0  0  0
    1.4503    1.6399    0.0000 C   0  0  0  0  0  0  0  0  0
    1.4503    0.8149    0.0000 C   0  0  0  0  0  0  0  0  0
    0.7359    0.4024    0.0000 C   0  0  0  0  0  0  0  0  0
    0.0214    0.8149    0.0000 C   0  0  0  0  0  0  0  0  0
  1  2  1  0  0  0  0
  1  9  1  0  0  0  0
  2  3  1  0  0  0  0
  3  4  1  0  0  0  0
  4  5  1  0  0  0  0
  4  8  1  0  0  0  0
  5  6  1  0  0  0  0
  6  7  1  0  0  0  0
  7  8  1  0  0  0  0
  9 10  4  0  0  0  0
  9 14  4  0  0  0  0
 10 11  4  0  0  0  0
 11 12  4  0  0  0  0
 12 13  4  0  0  0  0
 13 14  4  0  0  0  0
 14 15  1  0  0  0  0
 15 16  1  0  0  0  0
 16 17  4  0  0  0  0
 16 21  4  0  0  0  0
 17 18  4  0  0  0  0
 18 19  4  0  0  0  0
 19 20  4  0  0  0  0
 20 21  4  0  0  0  0
M  END
>  <Name_Molregno>
312003

>  <DOPAMINE D1>
6.42

>  <DOPAMINE D2>
5

>  <DOPAMINE D3>
5.74

>  <DOPAMINE D4>
5.85

>  <DOPAMINE D5>
6.02

$$$$
312018
  Marvin  02231216192D 0   1.00000     0.00000     0

 22 24  0  0  0  0  0  0  0  0999 V2000
   -0.9797   -0.4627    0.0000 O   0  0  0  0  0  0  0  0  0
   -0.2182    0.0222    0.0000 C   0  0  0  0  0  0  0  0  0
    0.0368    0.8068    0.0000 C   0  0  0  0  0  0  0  0  0
    0.8618    0.8068    0.0000 N   0  0  0  0  0  0  0  0  0
    1.1167    0.0222    0.0000 C   0  0  0  0  0  0  0  0  0
    1.8782   -0.4627    0.0000 C   0  0  0  0  0  0  0  0  0
    1.8782   -1.2877    0.0000 C   0  0  0  0  0  0  0  0  0
    1.1637   -1.7002    0.0000 C   0  0  0  0  0  0  0  0  0
    0.4493   -1.2877    0.0000 C   0  0  0  0  0  0  0  0  0
   -0.2652   -1.7002    0.0000 C   0  0  0  0  0  0  0  0  0
   -0.9797   -1.2877    0.0000 C   0  0  0  0  0  0  0  0  0
   -1.6942   -1.7002    0.0000 C   0  0  0  0  0  0  0  0  0
   -1.6942   -2.5252    0.0000 C   0  0  0  0  0  0  0  0  0
   -2.4086   -2.9377    0.0000 O   0  0  0  0  0  0  0  0  0
   -2.4086   -3.7627    0.0000 C   0  0  0  0  0  0  0  0  0
   -0.9797   -2.9377    0.0000 C   0  0  0  0  0  0  0  0  0
   -0.2652   -2.5252    0.0000 C   0  0  0  0  0  0  0  0  0
    1.1637   -2.5252    0.0000 C   0  0  0  0  0  0  0  0  0
    1.8782   -2.9377    0.0000 C   0  0  0  0  0  0  0  0  0
    2.5927   -2.5252    0.0000 C   0  0  0  0  0  0  0  0  0
    2.5927   -1.7002    0.0000 C   0  0  0  0  0  0  0  0  0
    1.3467    1.4743    0.0000 C   0  0  0  0  0  0  0  0  0
  1  2  1  0  0  0  0
  1 11  1  0  0  0  0
  2  3  1  0  0  0  0
  3  4  1  0  0  0  0
  4  5  1  0  0  0  0
  4 22  1  0  0  0  0
  5  6  1  0  0  0  0
  6  7  1  0  0  0  0
  7  8  4  0  0  0  0
  7 21  4  0  0  0  0
  8  9  1  0  0  0  0
  8 18  4  0  0  0  0
  9 10  1  0  0  0  0
 10 11  4  0  0  0  0
 10 17  4  0  0  0  0
 11 12  4  0  0  0  0
 12 13  4  0  0  0  0
 13 14  1  0  0  0  0
 13 16  4  0  0  0  0
 14 15  1  0  0  0  0
 16 17  4  0  0  0  0
 18 19  4  0  0  0  0
 19 20  4  0  0  0  0
 20 21  4  0  0  0  0
M  END
>  <Name_Molregno>
312018

>  <DOPAMINE D1>
7.45

>  <DOPAMINE D2>
6.8

>  <DOPAMINE D3>
5.8

>  <DOPAMINE D4>
6.26

>  <DOPAMINE D5>
8.74

$$$$
312019
  Marvin  02231216192D 0   1.00000     0.00000     0

 21 23  0  0  0  0  0  0  0  0999 V2000
   -0.3138   -0.2718    0.0000 O   0  0  0  0  0  0  0  0  0
    0.4477    0.2132    0.0000 C   0  0  0  0  0  0  0  0  0
    0.7027    0.9978    0.0000 C   0  0  0  0  0  0  0  0  0
    1.5277    0.9978    0.0000 N   0  0  0  0  0  0  0  0  0
    1.7826    0.2132    0.0000 C   0  0  0  0  0  0  0  0  0
    2.5441   -0.2718    0.0000 C   0  0  0  0  0  0  0  0  0
    2.5441   -1.0968    0.0000 C   0  0  0  0  0  0  0  0  0
    1.8296   -1.5093    0.0000 C   0  0  0  0  0  0  0  0  0
    1.1152   -1.0968    0.0000 C   0  0  0  0  0  0  0  0  0
    0.4007   -1.5093    0.0000 C   0  0  0  0  0  0  0  0  0
   -0.3138   -1.0968    0.0000 C   0  0  0  0  0  0  0  0  0
   -1.0282   -1.5093    0.0000 C   0  0  0  0  0  0  0  0  0
   -1.0282   -2.3343    0.0000 C   0  0  0  0  0  0  0  0  0
   -1.7427   -2.7468    0.0000 O   0  0  0  0  0  0  0  0  0
   -0.3138   -2.7468    0.0000 C   0  0  0  0  0  0  0  0  0
    0.4007   -2.3343    0.0000 C   0  0  0  0  0  0  0  0  0
    1.8296   -2.3343    0.0000 C   0  0  0  0  0  0  0  0  0
    2.5441   -2.7468    0.0000 C   0  0  0  0  0  0  0  0  0
    3.2586   -2.3343    0.0000 C   0  0  0  0  0  0  0  0  0
    3.2586   -1.5093    0.0000 C   0  0  0  0  0  0  0  0  0
    2.0126    1.6652    0.0000 C   0  0  0  0  0  0  0  0  0
  1  2  1  0  0  0  0
  1 11  1  0  0  0  0
  2  3  1  0  0  0  0
  3  4  1  0  0  0  0
  4  5  1  0  0  0  0
  4 21  1  0  0  0  0
  5  6  1  0  0  0  0
  6  7  1  0  0  0  0
  7  8  4  0  0  0  0
  7 20  4  0  0  0  0
  8  9  1  0  0  0  0
  8 17  4  0  0  0  0
  9 10  1  0  0  0  0
 10 11  4  0  0  0  0
 10 16  4  0  0  0  0
 11 12  4  0  0  0  0
 12 13  4  0  0  0  0
 13 14  1  0  0  0  0
 13 15  4  0  0  0  0
 15 16  4  0  0  0  0
 17 18  4  0  0  0  0
 18 19  4  0  0  0  0
 19 20  4  0  0  0  0
M  END
>  <Name_Molregno>
312019

>  <DOPAMINE D1>
8.49

>  <DOPAMINE D2>
6.56

>  <DOPAMINE D3>
5.86

>  <DOPAMINE D4>
6.43

>  <DOPAMINE D5>
9.24

$$$$
315432
  Marvin  02231216192D 0   1.00000     0.00000     0

 39 42  0  0  0  0  0  0  0  0999 V2000
    1.3459    1.7399    0.0000 O   0  0  0  0  0  0  0  0  0
    2.1709    1.7399    0.0000 C   0  0  0  0  0  0  0  0  0
    2.5834    1.0254    0.0000 N   0  0  0  0  0  0  0  0  0
    2.1709    0.3109    0.0000 C   0  0  0  0  0  0  0  0  0
    2.5834   -0.4036    0.0000 C   0  0  0  0  0  0  0  0  0
    3.4084   -0.4036    0.0000 C   0  0  0  0  0  0  0  0  0
    3.8209   -1.1180    0.0000 C   0  0  0  0  0  0  0  0  0
    3.4084   -1.8325    0.0000 C   0  0  0  0  0  0  0  0  0
    2.5834   -1.8325    0.0000 C   0  0  0  0  0  0  0  0  0
    2.1709   -1.1180    0.0000 C   0  0  0  0  0  0  0  0  0
    3.8209   -2.5470    0.0000 C   0  0  0  0  0  0  0  0  0
    4.6459   -2.5470    0.0000 C   0  0  0  0  0  0  0  0  0
    5.0584   -3.2614    0.0000 C   0  0  0  0  0  0  0  0  0
    4.6459   -3.9759    0.0000 C   0  0  0  0  0  0  0  0  0
    3.8209   -3.9759    0.0000 C   0  0  0  0  0  0  0  0  0
    3.4084   -3.2614    0.0000 C   0  0  0  0  0  0  0  0  0
    5.0584   -4.6904    0.0000 C   0  0  0  0  0  0  0  0  0
    4.6459   -5.4049    0.0000 N   0  0  0  0  0  0  0  0  0
    5.0584   -6.1193    0.0000 C   0  0  0  0  0  0  0  0  0
    4.6459   -6.8338    0.0000 C   0  0  0  0  0  0  0  0  0
    5.0584   -7.5483    0.0000 C   0  0  0  0  0  0  0  0  0
    5.8834   -7.5483    0.0000 C   0  0  0  0  0  0  0  0  0
    6.2959   -8.2627    0.0000 C   0  0  0  0  0  0  0  0  0
    5.8834   -8.9772    0.0000 C   0  0  0  0  0  0  0  0  0
    5.0584   -8.9772    0.0000 C   0  0  0  0  0  0  0  0  0
    4.6459   -8.2627    0.0000 C   0  0  0  0  0  0  0  0  0
    3.4084    1.0254    0.0000 C   0  0  0  0  0  0  0  0  0
    3.8209    0.3109    0.0000 C   0  0  0  0  0  0  0  0  0
    4.6459    0.3109    0.0000 N   0  0  0  0  0  0  0  0  0
    5.0584    1.0254    0.0000 C   0  0  0  0  0  0  0  0  0
    5.0584   -0.4036    0.0000 C   0  0  0  0  0  0  0  0  0
    2.5834    2.4543    0.0000 C   0  0  0  0  0  0  0  0  0
    2.1709    3.1688    0.0000 C   0  0  0  0  0  0  0  0  0
    2.5834    3.8833    0.0000 C   0  0  0  0  0  0  0  0  0
    2.1709    4.5977    0.0000 C   0  0  0  0  0  0  0  0  0
    2.5834    5.3122    0.0000 C   0  0  0  0  0  0  0  0  0
    3.4084    5.3122    0.0000 C   0  0  0  0  0  0  0  0  0
    3.8209    4.5977    0.0000 C   0  0  0  0  0  0  0  0  0
    3.4084    3.8833    0.0000 C   0  0  0  0  0  0  0  0  0
  1  2  2  0  0  0  0
  2  3  1  0  0  0  0
  2 32  1  0  0  0  0
  3  4  1  0  0  0  0
  3 27  1  0  0  0  0
  4  5  1  0  0  0  0
  5  6  4  0  0  0  0
  5 10  4  0  0  0  0
  6  7  4  0  0  0  0
  7  8  4  0  0  0  0
  8  9  4  0  0  0  0
  8 11  1  0  0  0  0
  9 10  4  0  0  0  0
 11 12  4  0  0  0  0
 11 16  4  0  0  0  0
 12 13  4  0  0  0  0
 13 14  4  0  0  0  0
 14 15  4  0  0  0  0
 14 17  1  0  0  0  0
 15 16  4  0  0  0  0
 17 18  1  0  0  0  0
 18 19  1  0  0  0  0
 19 20  1  0  0  0  0
 20 21  1  0  0  0  0
 21 22  4  0  0  0  0
 21 26  4  0  0  0  0
 22 23  4  0  0  0  0
 23 24  4  0  0  0  0
 24 25  4  0  0  0  0
 25 26  4  0  0  0  0
 27 28  1  0  0  0  0
 28 29  1  0  0  0  0
 29 30  1  0  0  0  0
 29 31  1  0  0  0  0
 32 33  2  0  0  0  0
 33 34  1  0  0  0  0
 34 35  4  0  0  0  0
 34 39  4  0  0  0  0
 35 36  4  0  0  0  0
 36 37  4  0  0  0  0
 37 38  4  0  0  0  0
 38 39  4  0  0  0  0
M  END
>  <Name_Molregno>
315432

>  <5-HT1A>
6.1

>  <5-HT1B>
6.2

>  <5-HT1D>
6.8

>  <5-HT1E>
5

>  <5-HT2A>
6.4

>  <5-HT2C>
6.2

>  <5-HT5>
7.6

>  <5-HT6>
5.1

>  <5-HT7>
6

>  <Alpha-1B>
6.7

>  <DOPAMINE D2>
6.1

>  <DOPAMINE D3>
6

>  <DOPAMINE D4>
5.9

$$$$
315433
  Marvin  02231216192D 0   1.00000     0.00000     0

 41 45  0  0  0  0  0  0  0  0999 V2000
    3.1883    0.1879    0.0000 O   0  0  0  0  0  0  0  0  0
    3.1883    1.0129    0.0000 C   0  0  0  0  0  0  0  0  0
    3.9028    1.4254    0.0000 N   0  0  0  0  0  0  0  0  0
    4.6173    1.0129    0.0000 C   0  0  0  0  0  0  0  0  0
    4.6173    0.1879    0.0000 C   0  0  0  0  0  0  0  0  0
    5.3317   -0.2246    0.0000 C   0  0  0  0  0  0  0  0  0
    5.3317   -1.0496    0.0000 C   0  0  0  0  0  0  0  0  0
    4.6173   -1.4621    0.0000 C   0  0  0  0  0  0  0  0  0
    3.9028   -1.0496    0.0000 C   0  0  0  0  0  0  0  0  0
    3.9028   -0.2246    0.0000 C   0  0  0  0  0  0  0  0  0
    4.6173   -2.2871    0.0000 C   0  0  0  0  0  0  0  0  0
    5.3317   -2.6996    0.0000 C   0  0  0  0  0  0  0  0  0
    5.3317   -3.5246    0.0000 C   0  0  0  0  0  0  0  0  0
    4.6173   -3.9371    0.0000 C   0  0  0  0  0  0  0  0  0
    3.9028   -3.5246    0.0000 C   0  0  0  0  0  0  0  0  0
    3.9028   -2.6996    0.0000 C   0  0  0  0  0  0  0  0  0
    4.6173   -4.7621    0.0000 C   0  0  0  0  0  0  0  0  0
    3.9028   -5.1746    0.0000 N   0  0  0  0  0  0  0  0  0
    3.9028   -5.9996    0.0000 C   0  0  0  0  0  0  0  0  0
    3.1883   -6.4121    0.0000 C   0  0  0  0  0  0  0  0  0
    3.1883   -7.2371    0.0000 C   0  0  0  0  0  0  0  0  0
    3.9028   -7.6496    0.0000 C   0  0  0  0  0  0  0  0  0
    3.9028   -8.4746    0.0000 C   0  0  0  0  0  0  0  0  0
    3.1883   -8.8871    0.0000 C   0  0  0  0  0  0  0  0  0
    2.4738   -8.4746    0.0000 C   0  0  0  0  0  0  0  0  0
    2.4738   -7.6496    0.0000 C   0  0  0  0  0  0  0  0  0
    3.9028    2.2504    0.0000 C   0  0  0  0  0  0  0  0  0
    4.6173    2.6629    0.0000 C   0  0  0  0  0  0  0  0  0
    5.3317    2.2504    0.0000 C   0  0  0  0  0  0  0  0  0
    6.0462    2.6629    0.0000 C   0  0  0  0  0  0  0  0  0
    6.0462    3.4879    0.0000 C   0  0  0  0  0  0  0  0  0
    5.3317    3.9004    0.0000 N   0  0  0  0  0  0  0  0  0
    4.6173    3.4879    0.0000 C   0  0  0  0  0  0  0  0  0
    2.4738    1.4254    0.0000 C   0  0  0  0  0  0  0  0  0
    1.7594    1.0129    0.0000 C   0  0  0  0  0  0  0  0  0
    1.0449    1.4254    0.0000 C   0  0  0  0  0  0  0  0  0
    0.3304    1.0129    0.0000 C   0  0  0  0  0  0  0  0  0
   -0.3840    1.4254    0.0000 C   0  0  0  0  0  0  0  0  0
   -0.3840    2.2504    0.0000 C   0  0  0  0  0  0  0  0  0
    0.3304    2.6629    0.0000 C   0  0  0  0  0  0  0  0  0
    1.0449    2.2504    0.0000 C   0  0  0  0  0  0  0  0  0
  1  2  2  0  0  0  0
  2  3  1  0  0  0  0
  2 34  1  0  0  0  0
  3  4  1  0  0  0  0
  3 27  1  0  0  0  0
  4  5  1  0  0  0  0
  5  6  4  0  0  0  0
  5 10  4  0  0  0  0
  6  7  4  0  0  0  0
  7  8  4  0  0  0  0
  8  9  4  0  0  0  0
  8 11  1  0  0  0  0
  9 10  4  0  0  0  0
 11 12  4  0  0  0  0
 11 16  4  0  0  0  0
 12 13  4  0  0  0  0
 13 14  4  0  0  0  0
 14 15  4  0  0  0  0
 14 17  1  0  0  0  0
 15 16  4  0  0  0  0
 17 18  1  0  0  0  0
 18 19  1  0  0  0  0
 19 20  1  0  0  0  0
 20 21  1  0  0  0  0
 21 22  4  0  0  0  0
 21 26  4  0  0  0  0
 22 23  4  0  0  0  0
 23 24  4  0  0  0  0
 24 25  4  0  0  0  0
 25 26  4  0  0  0  0
 27 28  1  0  0  0  0
 28 29  4  0  0  0  0
 28 33  4  0  0  0  0
 29 30  4  0  0  0  0
 30 31  4  0  0  0  0
 31 32  4  0  0  0  0
 32 33  4  0  0  0  0
 34 35  2  0  0  0  0
 35 36  1  0  0  0  0
 36 37  4  0  0  0  0
 36 41  4  0  0  0  0
 37 38  4  0  0  0  0
 38 39  4  0  0  0  0
 39 40  4  0  0  0  0
 40 41  4  0  0  0  0
M  END
>  <Name_Molregno>
315433

>  <5-HT1A>
6

>  <5-HT1B>
6.2

>  <5-HT1D>
5.9

>  <5-HT1E>
5

>  <5-HT2A>
6.1

>  <5-HT2C>
6

>  <5-HT5>
7.3

>  <5-HT6>
5.7

>  <5-HT7>
5.9

>  <Alpha-1B>
6.5

>  <DOPAMINE D2>
5.9

>  <DOPAMINE D3>
5.8

>  <DOPAMINE D4>
5.8

$$$$
315545
  Marvin  02231216192D 0   1.00000     0.00000     0

 38 41  0  0  0  0  0  0  0  0999 V2000
    8.3584    0.3824    0.0000 O   0  0  0  0  0  0  0  0  0
    7.8183   -0.2412    0.0000 C   0  0  0  0  0  0  0  0  0
    7.0082   -0.0853    0.0000 N   0  0  0  0  0  0  0  0  0
    6.7381    0.6942    0.0000 C   0  0  0  0  0  0  0  0  0
    5.9280    0.8501    0.0000 C   0  0  0  0  0  0  0  0  0
    5.3879    0.2265    0.0000 C   0  0  0  0  0  0  0  0  0
    4.5778    0.3824    0.0000 C   0  0  0  0  0  0  0  0  0
    4.3077    1.1620    0.0000 C   0  0  0  0  0  0  0  0  0
    4.8478    1.7856    0.0000 C   0  0  0  0  0  0  0  0  0
    5.6579    1.6297    0.0000 C   0  0  0  0  0  0  0  0  0
    3.4976    1.3179    0.0000 C   0  0  0  0  0  0  0  0  0
    2.9575    0.6942    0.0000 C   0  0  0  0  0  0  0  0  0
    2.1474    0.8501    0.0000 C   0  0  0  0  0  0  0  0  0
    1.8773    1.6297    0.0000 C   0  0  0  0  0  0  0  0  0
    2.4174    2.2533    0.0000 C   0  0  0  0  0  0  0  0  0
    3.2275    2.0974    0.0000 C   0  0  0  0  0  0  0  0  0
    1.0672    1.7856    0.0000 C   0  0  0  0  0  0  0  0  0
    0.7971    2.5652    0.0000 N   0  0  0  0  0  0  0  0  0
   -0.0130    2.7211    0.0000 C   0  0  0  0  0  0  0  0  0
   -0.2830    3.5006    0.0000 C   0  0  0  0  0  0  0  0  0
   -1.0932    3.6565    0.0000 C   0  0  0  0  0  0  0  0  0
   -1.6333    3.0329    0.0000 C   0  0  0  0  0  0  0  0  0
   -2.4434    3.1888    0.0000 C   0  0  0  0  0  0  0  0  0
   -2.7135    3.9683    0.0000 C   0  0  0  0  0  0  0  0  0
   -2.1734    4.5920    0.0000 C   0  0  0  0  0  0  0  0  0
   -1.3632    4.4361    0.0000 C   0  0  0  0  0  0  0  0  0
    6.4681   -0.7090    0.0000 C   0  0  0  0  0  0  0  0  0
    5.6579   -0.5531    0.0000 C   0  0  0  0  0  0  0  0  0
    5.1178   -1.1767    0.0000 N   0  0  0  0  0  0  0  0  0
    5.3879   -1.9562    0.0000 C   0  0  0  0  0  0  0  0  0
    4.3077   -1.0208    0.0000 C   0  0  0  0  0  0  0  0  0
    8.0883   -1.0208    0.0000 C   0  0  0  0  0  0  0  0  0
    8.8985   -1.1767    0.0000 C   0  0  0  0  0  0  0  0  0
    9.1685   -1.9562    0.0000 C   0  0  0  0  0  0  0  0  0
    9.9579   -2.1960    0.0000 C   0  0  0  0  0  0  0  0  0
    9.9738   -3.0208    0.0000 C   0  0  0  0  0  0  0  0  0
    9.1943   -3.2909    0.0000 C   0  0  0  0  0  0  0  0  0
    8.6966   -2.6329    0.0000 C   0  0  0  0  0  0  0  0  0
  1  2  2  0  0  0  0
  2  3  1  0  0  0  0
  2 32  1  0  0  0  0
  3  4  1  0  0  0  0
  3 27  1  0  0  0  0
  4  5  1  0  0  0  0
  5  6  4  0  0  0  0
  5 10  4  0  0  0  0
  6  7  4  0  0  0  0
  7  8  4  0  0  0  0
  8  9  4  0  0  0  0
  8 11  1  0  0  0  0
  9 10  4  0  0  0  0
 11 12  4  0  0  0  0
 11 16  4  0  0  0  0
 12 13  4  0  0  0  0
 13 14  4  0  0  0  0
 14 15  4  0  0  0  0
 14 17  1  0  0  0  0
 15 16  4  0  0  0  0
 17 18  1  0  0  0  0
 18 19  1  0  0  0  0
 19 20  1  0  0  0  0
 20 21  1  0  0  0  0
 21 22  4  0  0  0  0
 21 26  4  0  0  0  0
 22 23  4  0  0  0  0
 23 24  4  0  0  0  0
 24 25  4  0  0  0  0
 25 26  4  0  0  0  0
 27 28  1  0  0  0  0
 28 29  1  0  0  0  0
 29 30  1  0  0  0  0
 29 31  1  0  0  0  0
 32 33  1  0  0  0  0
 33 34  1  0  0  0  0
 34 35  1  0  0  0  0
 34 38  1  0  0  0  0
 35 36  1  0  0  0  0
 36 37  1  0  0  0  0
 37 38  1  0  0  0  0
M  END
>  <Name_Molregno>
315545

>  <5-HT1A>
6.3

>  <5-HT1B>
6.5

>  <5-HT1D>
6.4

>  <5-HT1E>
5

>  <5-HT2A>
6.1

>  <5-HT2C>
6.4

>  <5-HT5>
8.2

>  <5-HT6>
5.4

>  <5-HT7>
5.4

>  <Alpha-1B>
6.5

>  <DOPAMINE D2>
5.9

>  <DOPAMINE D3>
6.2

>  <DOPAMINE D4>
6.1

>  <Serotonin transporter>
7.6

$$$$
320346
  Marvin  02231216192D 0   1.00000     0.00000     0

 25 28  0  0  1  0  0  0  0  0999 V2000
   -0.3965   -3.1617    0.0000 O   0  0  0  0  0  0  0  0  0
    0.3175   -3.5751    0.0000 C   0  0  0  0  0  0  0  0  0
    1.0325   -3.1634    0.0000 N   0  0  0  0  0  0  0  0  0
    1.0334   -2.3384    0.0000 C   0  0  0  0  0  0  0  0  0
    1.7484   -1.9268    0.0000 C   0  0  0  0  0  0  0  0  0
    1.7494   -1.1018    0.0000 C   0  0  0  0  0  0  0  0  0
    1.0354   -0.6884    0.0000 C   0  0  0  0  0  0  0  0  0
    0.3205   -1.1001    0.0000 N   0  0  0  0  0  0  0  0  0
    0.3195   -1.9251    0.0000 C   0  0  0  0  0  0  0  0  0
   -0.3935   -0.6867    0.0000 C   0  0  0  0  0  0  0  0  0
    1.0369    0.1357    0.0000 C   0  0  0  0  0  0  0  0  0
    1.7494    0.5482    0.0000 C   0  0  0  0  0  0  0  0  0
    2.4619    0.1357    0.0000 C   0  0  0  0  0  0  0  0  0
    2.4619   -0.6893    0.0000 C   0  0  0  0  0  0  0  0  0
    3.1798   -1.1018    0.0000 C   0  0  0  0  0  0  0  0  0
    3.8923   -0.6893    0.0000 C   0  0  0  0  0  0  0  0  0
    3.8923    0.1357    0.0000 C   0  0  0  0  0  0  0  0  0
    3.1798    0.5482    0.0000 C   0  0  0  0  0  0  0  0  0
    2.8744    1.4054    0.0000 N   0  0  0  0  0  0  0  0  0
    2.0494    1.4054    0.0000 C   0  0  0  0  0  0  0  0  0
    0.3165   -4.4001    0.0000 N   0  0  0  0  0  0  0  0  0
   -0.3985   -4.8117    0.0000 C   0  0  0  0  0  0  0  0  0
   -0.3994   -5.6367    0.0000 C   0  0  0  0  0  0  0  0  0
    1.0305   -4.8134    0.0000 C   0  0  0  0  0  0  0  0  0
    1.0295   -5.6384    0.0000 C   0  0  0  0  0  0  0  0  0
  1  2  2  0  0  0  0
  2  3  1  0  0  0  0
  2 21  1  0  0  0  0
  3  4  1  0  0  0  0
  4  5  1  0  0  0  0
  4  9  1  0  0  0  0
  5  6  2  0  0  0  0
  6  7  1  0  0  0  0
  6 14  1  0  0  0  0
  7  8  1  0  0  0  0
  7 11  1  0  0  0  0
  8  9  1  0  0  0  0
  8 10  1  0  0  0  0
 11 12  1  0  0  0  0
 12 13  4  0  0  0  0
 12 20  4  0  0  0  0
 13 14  4  0  0  0  0
 13 18  4  0  0  0  0
 14 15  4  0  0  0  0
 15 16  4  0  0  0  0
 16 17  4  0  0  0  0
 17 18  4  0  0  0  0
 18 19  4  0  0  0  0
 19 20  4  0  0  0  0
 21 22  1  0  0  0  0
 21 24  1  0  0  0  0
 22 23  1  0  0  0  0
 24 25  1  0  0  0  0
M  STY  1   1 DAT
M  SAL   1  1  19
M  SDT   1 MRV_IMPLICIT_H                                        
M  SDD   1     0.0000    0.0000    DR    ALL  0       0  
M  SED   1 IMPL_H1
M  END
>  <Name_Molregno>
320346

>  <5-HT1A>
9.06

>  <5-HT1B>
7.73

>  <5-HT1D>
9.01

>  <5-HT2A>
8.71

>  <5-HT2C>
8.2

>  <Alpha-1A>
8.26

>  <Alpha-1B>
7.78

>  <Alpha-2A>
10.26

>  <Alpha-2B>
9.87

>  <Beta-1>
7.17

>  <Beta-2>
8.1

>  <DOPAMINE D1>
7.19

>  <DOPAMINE D2>
9.31

>  <DOPAMINE D3>
9.14

>  <DOPAMINE D4>
8.33

>  <DOPAMINE D5>
8.45

$$$$
320439
  Marvin  02231216192D 0   1.00000     0.00000     0

 18 19  0  0  1  0  0  0  0  0999 V2000
   -0.8148    1.0169    0.0000 N   0  0  0  0  0  0  0  0  0
   -0.4023    0.3024    0.0000 C   0  0  0  0  0  0  0  0  0
   -0.8148   -0.4120    0.0000 C   0  0  0  0  0  0  0  0  0
   -1.6398   -0.4120    0.0000 C   0  0  0  0  0  0  0  0  0
   -2.0523   -1.1265    0.0000 N   0  0  0  0  0  0  0  0  0
   -2.8773   -1.1265    0.0000 C   0  0  0  0  0  0  0  0  0
   -3.2898   -1.8410    0.0000 C   0  0  0  0  0  0  0  0  0
   -4.1148   -1.8410    0.0000 C   0  0  0  0  0  0  0  0  0
   -1.6398   -1.8410    0.0000 C   0  0  0  0  0  0  0  0  0
   -0.8148   -1.8410    0.0000 C   0  0  0  0  0  0  0  0  0
   -0.4023   -2.5554    0.0000 C   0  0  0  0  0  0  0  0  0
   -2.0523    0.3024    0.0000 C   0  0  0  0  0  0  0  0  0
   -1.6398    1.0169    0.0000 C   0  0  0  0  0  0  0  0  0
    0.4047    0.4740    0.0000 C   0  0  0  0  0  0  0  0  0
    0.4909    1.2945    0.0000 C   0  0  0  0  0  0  0  0  0
   -0.2627    1.6300    0.0000 C   0  0  0  0  0  0  0  0  0
   -0.4343    2.4370    0.0000 C   0  0  0  0  0  0  0  0  0
   -0.6058    3.2440    0.0000 N   0  0  0  0  0  0  0  0  0
  1  2  4  0  0  0  0
  1 13  1  0  0  0  0
  1 16  4  0  0  0  0
  2  3  1  0  0  0  0
  2 14  4  0  0  0  0
  3  4  1  0  0  0  0
  4  5  1  0  0  0  0
  4 12  1  0  0  0  0
  5  6  1  0  0  0  0
  5  9  1  0  0  0  0
  6  7  1  0  0  0  0
  7  8  1  0  0  0  0
  9 10  1  0  0  0  0
 10 11  1  0  0  0  0
 12 13  1  0  0  0  0
 14 15  4  0  0  0  0
 15 16  4  0  0  0  0
 16 17  1  0  0  0  0
 17 18  3  0  0  0  0
M  END
>  <Name_Molregno>
320439

>  <DOPAMINE D2>
6.02

>  <DOPAMINE D3>
7.17

>  <DOPAMINE D4>
6.21

$$$$
320506
  Marvin  02231216192D 0   1.00000     0.00000     0

 16 18  0  0  1  0  0  0  0  0999 V2000
   -0.1353   -1.1187    0.0000 N   0  0  0  0  0  0  0  0  0
    0.3496   -1.7861    0.0000 N   0  0  0  0  0  0  0  0  0
    1.1342   -1.5312    0.0000 C   0  0  0  0  0  0  0  0  0
    1.8487   -1.9437    0.0000 C   0  0  0  0  0  0  0  0  0
    2.5632   -1.5312    0.0000 C   0  0  0  0  0  0  0  0  0
    2.5632   -0.7062    0.0000 C   0  0  0  0  0  0  0  0  0
    3.2776   -0.2937    0.0000 N   0  0  0  0  0  0  0  0  0
    3.9921   -0.7062    0.0000 C   0  0  0  0  0  0  0  0  0
    3.9921   -1.5312    0.0000 C   0  0  0  0  0  0  0  0  0
    3.2776   -1.9437    0.0000 C   0  0  0  0  0  0  0  0  0
    3.2776    0.5313    0.0000 C   0  0  0  0  0  0  0  0  0
    3.9921    0.9438    0.0000 C   0  0  0  0  0  0  0  0  0
    3.9921    1.7688    0.0000 C   0  0  0  0  0  0  0  0  0
    1.8487   -0.2937    0.0000 C   0  0  0  0  0  0  0  0  0
    1.1342   -0.7062    0.0000 C   0  0  0  0  0  0  0  0  0
    0.3496   -0.4512    0.0000 C   0  0  0  0  0  0  0  0  0
  1  2  4  0  0  0  0
  1 16  4  0  0  0  0
  2  3  4  0  0  0  0
  3  4  1  0  0  0  0
  3 15  4  0  0  0  0
  4  5  1  0  0  0  0
  5  6  1  0  0  0  0
  5 10  1  0  0  0  0
  6  7  1  0  0  0  0
  6 14  1  0  0  0  0
  7  8  1  0  0  0  0
  7 11  1  0  0  0  0
  8  9  1  0  0  0  0
  9 10  1  0  0  0  0
 11 12  1  0  0  0  0
 12 13  1  0  0  0  0
 14 15  1  0  0  0  0
 15 16  4  0  0  0  0
M  STY  1   1 DAT
M  SAL   1  1   1
M  SDT   1 MRV_IMPLICIT_H                                        
M  SDD   1     0.0000    0.0000    DR    ALL  0       0  
M  SED   1 IMPL_H1
M  END
>  <Name_Molregno>
320506

>  <DOPAMINE D1>
7.2

>  <DOPAMINE D2>
6.16

>  <DOPAMINE D3>
7

>  <DOPAMINE D4>
8.01

$$$$
321985
  Marvin  02231216192D 0   1.00000     0.00000     0

 31 35  0  0  0  0  0  0  0  0999 V2000
    4.0403    1.1934    0.0000 O   0  0  0  0  0  0  0  0  0
    3.3258    0.7809    0.0000 C   0  0  0  0  0  0  0  0  0
    3.3258   -0.0441    0.0000 C   0  0  0  0  0  0  0  0  0
    2.6114   -0.4566    0.0000 N   0  0  0  0  0  0  0  0  0
    2.6114   -1.2816    0.0000 C   0  0  0  0  0  0  0  0  0
    1.8969   -1.6941    0.0000 C   0  0  0  0  0  0  0  0  0
    1.1824   -1.2816    0.0000 N   0  0  0  0  0  0  0  0  0
    1.1824   -0.4566    0.0000 C   0  0  0  0  0  0  0  0  0
    1.8969   -0.0441    0.0000 C   0  0  0  0  0  0  0  0  0
    0.4679   -1.6941    0.0000 C   0  0  0  0  0  0  0  0  0
   -0.2465   -1.2816    0.0000 C   0  0  0  0  0  0  0  0  0
   -0.9610   -1.6941    0.0000 C   0  0  0  0  0  0  0  0  0
   -0.9610   -2.5191    0.0000 N   0  0  0  0  0  0  0  0  0
   -1.6755   -2.9316    0.0000 C   0  0  0  0  0  0  0  0  0
   -2.3899   -2.5191    0.0000 C   0  0  0  0  0  0  0  0  0
   -2.3899   -1.6941    0.0000 C   0  0  0  0  0  0  0  0  0
   -1.6755   -1.2816    0.0000 C   0  0  0  0  0  0  0  0  0
   -1.6755   -0.4566    0.0000 C   0  0  0  0  0  0  0  0  0
   -0.9610   -0.0441    0.0000 C   0  0  0  0  0  0  0  0  0
   -0.2465   -0.4566    0.0000 C   0  0  0  0  0  0  0  0  0
    4.0403    2.0184    0.0000 C   0  0  0  0  0  0  0  0  0
    4.7548    2.4309    0.0000 C   0  0  0  0  0  0  0  0  0
    4.7548    3.2559    0.0000 C   0  0  0  0  0  0  0  0  0
    5.4692    3.6684    0.0000 N   0  0  0  0  0  0  0  0  0
    6.1837    3.2559    0.0000 C   0  0  0  0  0  0  0  0  0
    6.1837    2.4309    0.0000 C   0  0  0  0  0  0  0  0  0
    5.4692    2.0184    0.0000 C   0  0  0  0  0  0  0  0  0
    6.8982    3.6684    0.0000 C   0  0  0  0  0  0  0  0  0
    4.0403    3.6684    0.0000 C   0  0  0  0  0  0  0  0  0
    3.3258    3.2559    0.0000 C   0  0  0  0  0  0  0  0  0
    3.3258    2.4309    0.0000 C   0  0  0  0  0  0  0  0  0
  1  2  1  0  0  0  0
  1 21  1  0  0  0  0
  2  3  1  0  0  0  0
  3  4  1  0  0  0  0
  4  5  1  0  0  0  0
  4  9  1  0  0  0  0
  5  6  1  0  0  0  0
  6  7  1  0  0  0  0
  7  8  1  0  0  0  0
  7 10  1  0  0  0  0
  8  9  1  0  0  0  0
 10 11  1  0  0  0  0
 11 12  4  0  0  0  0
 11 20  4  0  0  0  0
 12 13  4  0  0  0  0
 12 17  4  0  0  0  0
 13 14  4  0  0  0  0
 14 15  4  0  0  0  0
 15 16  4  0  0  0  0
 16 17  4  0  0  0  0
 17 18  4  0  0  0  0
 18 19  4  0  0  0  0
 19 20  4  0  0  0  0
 21 22  4  0  0  0  0
 21 31  4  0  0  0  0
 22 23  4  0  0  0  0
 22 27  4  0  0  0  0
 23 24  4  0  0  0  0
 23 29  4  0  0  0  0
 24 25  4  0  0  0  0
 25 26  4  0  0  0  0
 25 28  1  0  0  0  0
 26 27  4  0  0  0  0
 29 30  4  0  0  0  0
 30 31  4  0  0  0  0
M  END
>  <Name_Molregno>
321985

>  <5-HT1A>
6.5

>  <5-HT1B>
6.7

>  <5-HT1D>
9.1

>  <5-HT1E>
5

>  <5-HT2A>
5.6

>  <5-HT2C>
5.5

>  <5-HT5>
5.5

>  <5-HT6>
5

>  <5-HT7>
6.3

>  <Alpha-1B>
6

>  <Beta-2>
5.7

>  <DOPAMINE D2>
5.5

>  <DOPAMINE D3>
6

>  <DOPAMINE D4>
5

$$$$
324887
  Marvin  02231216192D 0   1.00000     0.00000     0

 25 26  0  0  1  0  0  0  0  0999 V2000
    0.0278    1.0796    0.0000 Cl  0  0  0  0  0  0  0  0  0
    0.7423    0.6671    0.0000 C   0  0  0  0  0  0  0  0  0
    1.4568    1.0796    0.0000 C   0  0  0  0  0  0  0  0  0
    2.1712    0.6671    0.0000 C   0  0  0  0  0  0  0  0  0
    2.1712   -0.1579    0.0000 C   0  0  0  0  0  0  0  0  0
    1.4568   -0.5704    0.0000 C   0  0  0  0  0  0  0  0  0
    0.7423   -0.1579    0.0000 C   0  0  0  0  0  0  0  0  0
    2.8857   -0.5704    0.0000 C   0  0  0  0  0  0  0  0  0
    2.8857   -1.3954    0.0000 O   0  0  0  0  0  0  0  0  0
    3.6002   -0.1579    0.0000 C   0  0  0  0  0  0  0  0  0
    4.3147   -0.5704    0.0000 C   0  0  0  0  0  0  0  0  0
    5.0291   -0.1579    0.0000 N   0  0  0  0  0  0  0  0  0
    5.7436   -0.5704    0.0000 C   0  0  0  0  0  0  0  0  0
    6.4581   -0.1579    0.0000 C   0  0  0  0  0  0  0  0  0
    7.1725   -0.5704    0.0000 C   0  0  0  0  0  0  0  0  0
    7.8870   -0.1579    0.0000 C   0  0  0  0  0  0  0  0  0
    7.8870    0.6671    0.0000 O   0  0  0  0  0  0  0  0  0
    8.6015   -0.5704    0.0000 C   0  0  0  0  0  0  0  0  0
    9.3160   -0.1579    0.0000 C   0  0  0  0  0  0  0  0  0
   10.0304   -0.5704    0.0000 C   0  0  0  0  0  0  0  0  0
   10.0304   -1.3954    0.0000 C   0  0  0  0  0  0  0  0  0
   10.7449   -1.8079    0.0000 F   0  0  0  0  0  0  0  0  0
    9.3160   -1.8079    0.0000 C   0  0  0  0  0  0  0  0  0
    8.6015   -1.3954    0.0000 C   0  0  0  0  0  0  0  0  0
    5.0291    0.6671    0.0000 C   0  0  0  0  0  0  0  0  0
  1  2  1  0  0  0  0
  2  3  4  0  0  0  0
  2  7  4  0  0  0  0
  3  4  4  0  0  0  0
  4  5  4  0  0  0  0
  5  6  4  0  0  0  0
  5  8  1  0  0  0  0
  6  7  4  0  0  0  0
  8  9  1  0  0  0  0
  8 10  1  0  0  0  0
 10 11  1  0  0  0  0
 11 12  1  0  0  0  0
 12 13  1  0  0  0  0
 12 25  1  0  0  0  0
 13 14  1  0  0  0  0
 14 15  1  0  0  0  0
 15 16  1  0  0  0  0
 16 17  2  0  0  0  0
 16 18  1  0  0  0  0
 18 19  4  0  0  0  0
 18 24  4  0  0  0  0
 19 20  4  0  0  0  0
 20 21  4  0  0  0  0
 21 22  1  0  0  0  0
 21 23  4  0  0  0  0
 23 24  4  0  0  0  0
M  END
>  <Name_Molregno>
324887

>  <DOPAMINE D2>
7.58

>  <DOPAMINE D3>
6.79

>  <DOPAMINE D4>
6.72

$$$$
325134
  Marvin  02231216192D 0   1.00000     0.00000     0

 27 29  0  0  0  0  0  0  0  0999 V2000
   -0.0721    1.7043    0.0000 F   0  0  0  0  0  0  0  0  0
    0.6423    1.2918    0.0000 C   0  0  0  0  0  0  0  0  0
    1.3568    1.7043    0.0000 C   0  0  0  0  0  0  0  0  0
    2.0713    1.2918    0.0000 C   0  0  0  0  0  0  0  0  0
    2.0713    0.4668    0.0000 C   0  0  0  0  0  0  0  0  0
    1.3568    0.0543    0.0000 C   0  0  0  0  0  0  0  0  0
    0.6423    0.4668    0.0000 C   0  0  0  0  0  0  0  0  0
    2.7857    0.0543    0.0000 C   0  0  0  0  0  0  0  0  0
    2.7857   -0.7707    0.0000 O   0  0  0  0  0  0  0  0  0
    3.5002    0.4668    0.0000 C   0  0  0  0  0  0  0  0  0
    4.2147    0.0543    0.0000 C   0  0  0  0  0  0  0  0  0
    4.9292    0.4668    0.0000 C   0  0  0  0  0  0  0  0  0
    5.6436    0.0543    0.0000 N   0  0  0  0  0  0  0  0  0
    6.3581    0.4668    0.0000 C   0  0  0  0  0  0  0  0  0
    7.0726    0.0543    0.0000 C   0  0  0  0  0  0  0  0  0
    7.0726   -0.7707    0.0000 C   0  0  0  0  0  0  0  0  0
    7.8850   -0.6274    0.0000 O   0  0  0  0  0  0  0  0  0
    6.3581   -1.1832    0.0000 C   0  0  0  0  0  0  0  0  0
    5.6436   -0.7707    0.0000 C   0  0  0  0  0  0  0  0  0
    7.3547   -1.5460    0.0000 C   0  0  0  0  0  0  0  0  0
    8.1672   -1.6892    0.0000 C   0  0  0  0  0  0  0  0  0
    8.6975   -1.0572    0.0000 C   0  0  0  0  0  0  0  0  0
    9.5100   -1.2005    0.0000 C   0  0  0  0  0  0  0  0  0
    9.7921   -1.9757    0.0000 C   0  0  0  0  0  0  0  0  0
    9.2618   -2.6077    0.0000 C   0  0  0  0  0  0  0  0  0
    8.4494   -2.4645    0.0000 C   0  0  0  0  0  0  0  0  0
   10.6046   -2.1190    0.0000 C   0  0  0  0  0  0  0  0  0
  1  2  1  0  0  0  0
  2  3  4  0  0  0  0
  2  7  4  0  0  0  0
  3  4  4  0  0  0  0
  4  5  4  0  0  0  0
  5  6  4  0  0  0  0
  5  8  1  0  0  0  0
  6  7  4  0  0  0  0
  8  9  2  0  0  0  0
  8 10  1  0  0  0  0
 10 11  1  0  0  0  0
 11 12  1  0  0  0  0
 12 13  1  0  0  0  0
 13 14  1  0  0  0  0
 13 19  1  0  0  0  0
 14 15  1  0  0  0  0
 15 16  1  0  0  0  0
 16 17  1  0  0  0  0
 16 18  1  0  0  0  0
 16 20  1  0  0  0  0
 18 19  1  0  0  0  0
 20 21  1  0  0  0  0
 21 22  4  0  0  0  0
 21 26  4  0  0  0  0
 22 23  4  0  0  0  0
 23 24  4  0  0  0  0
 24 25  4  0  0  0  0
 24 27  1  0  0  0  0
 25 26  4  0  0  0  0
M  END
>  <Name_Molregno>
325134

>  <DOPAMINE D2>
8.1

>  <DOPAMINE D3>
8.05

>  <DOPAMINE D4>
7.23

$$$$
327069
  Marvin  02231216192D 0   1.00000     0.00000     0

 31 34  0  0  0  0  0  0  0  0999 V2000
    4.9165    5.1026    0.0000 Cl  0  0  0  0  0  0  0  0  0
    4.9165    4.2776    0.0000 C   0  0  0  0  0  0  0  0  0
    5.6310    3.8651    0.0000 C   0  0  0  0  0  0  0  0  0
    5.6310    3.0401    0.0000 C   0  0  0  0  0  0  0  0  0
    4.9165    2.6276    0.0000 C   0  0  0  0  0  0  0  0  0
    4.9165    1.8026    0.0000 N   0  0  0  0  0  0  0  0  0
    5.6310    1.3901    0.0000 C   0  0  0  0  0  0  0  0  0
    5.6310    0.5651    0.0000 C   0  0  0  0  0  0  0  0  0
    4.9165    0.1526    0.0000 N   0  0  0  0  0  0  0  0  0
    4.2021    0.5651    0.0000 C   0  0  0  0  0  0  0  0  0
    4.2021    1.3901    0.0000 C   0  0  0  0  0  0  0  0  0
    4.9165   -0.6724    0.0000 C   0  0  0  0  0  0  0  0  0
    4.2021   -1.0849    0.0000 O   0  0  0  0  0  0  0  0  0
    5.6310   -1.0849    0.0000 N   0  0  0  0  0  0  0  0  0
    5.6310   -1.9099    0.0000 C   0  0  0  0  0  0  0  0  0
    6.3455   -2.3224    0.0000 C   0  0  0  0  0  0  0  0  0
    6.3455   -3.1474    0.0000 C   0  0  0  0  0  0  0  0  0
    7.0599   -3.5599    0.0000 N   0  0  0  0  0  0  0  0  0
    7.7744   -3.1474    0.0000 C   0  0  0  0  0  0  0  0  0
    8.4889   -3.5599    0.0000 C   0  0  0  0  0  0  0  0  0
    8.4889   -4.3849    0.0000 N   0  0  0  0  0  0  0  0  0
    7.7744   -4.7974    0.0000 C   0  0  0  0  0  0  0  0  0
    7.0599   -4.3849    0.0000 C   0  0  0  0  0  0  0  0  0
    9.2034   -4.7974    0.0000 C   0  0  0  0  0  0  0  0  0
    5.6310   -3.5599    0.0000 C   0  0  0  0  0  0  0  0  0
    5.6310   -4.3849    0.0000 O   0  0  0  0  0  0  0  0  0
    4.9165   -4.7974    0.0000 C   0  0  0  0  0  0  0  0  0
    4.9165   -3.1474    0.0000 C   0  0  0  0  0  0  0  0  0
    4.9165   -2.3224    0.0000 C   0  0  0  0  0  0  0  0  0
    4.2021    3.0401    0.0000 C   0  0  0  0  0  0  0  0  0
    4.2021    3.8651    0.0000 C   0  0  0  0  0  0  0  0  0
  1  2  1  0  0  0  0
  2  3  4  0  0  0  0
  2 31  4  0  0  0  0
  3  4  4  0  0  0  0
  4  5  4  0  0  0  0
  5  6  1  0  0  0  0
  5 30  4  0  0  0  0
  6  7  1  0  0  0  0
  6 11  1  0  0  0  0
  7  8  1  0  0  0  0
  8  9  1  0  0  0  0
  9 10  1  0  0  0  0
  9 12  1  0  0  0  0
 10 11  1  0  0  0  0
 12 13  2  0  0  0  0
 12 14  1  0  0  0  0
 14 15  1  0  0  0  0
 15 16  4  0  0  0  0
 15 29  4  0  0  0  0
 16 17  4  0  0  0  0
 17 18  1  0  0  0  0
 17 25  4  0  0  0  0
 18 19  1  0  0  0  0
 18 23  1  0  0  0  0
 19 20  1  0  0  0  0
 20 21  1  0  0  0  0
 21 22  1  0  0  0  0
 21 24  1  0  0  0  0
 22 23  1  0  0  0  0
 25 26  1  0  0  0  0
 25 28  4  0  0  0  0
 26 27  1  0  0  0  0
 28 29  4  0  0  0  0
 30 31  4  0  0  0  0
M  END
>  <Name_Molregno>
327069

>  <5-HT1A>
7.28

>  <5-HT1B>
8.74

>  <5-HT1D>
8.19

>  <5-HT2A>
6

>  <5-HT2C>
6.57

>  <5-HT6>
5.29

>  <5-HT7>
5

>  <DOPAMINE D1>
5

>  <DOPAMINE D2>
5

>  <DOPAMINE D3>
5

>  <DOPAMINE D4>
5

>  <DOPAMINE D5>
5

>  <HISTAMINE H1>
5

>  <Muscarinic acetylcholine receptor M1>
5

>  <Muscarinic acetylcholine receptor M2>
5

>  <Muscarinic acetylcholine receptor M3>
5

>  <Muscarinic acetylcholine receptor M4>
5

>  <Muscarinic acetylcholine receptor M5>
5

$$$$
327077
  Marvin  02231216192D 0   1.00000     0.00000     0

 31 34  0  0  0  0  0  0  0  0999 V2000
    4.9165    5.1026    0.0000 F   0  0  0  0  0  0  0  0  0
    4.9165    4.2776    0.0000 C   0  0  0  0  0  0  0  0  0
    5.6310    3.8651    0.0000 C   0  0  0  0  0  0  0  0  0
    5.6310    3.0401    0.0000 C   0  0  0  0  0  0  0  0  0
    4.9165    2.6276    0.0000 C   0  0  0  0  0  0  0  0  0
    4.9165    1.8026    0.0000 N   0  0  0  0  0  0  0  0  0
    5.6310    1.3901    0.0000 C   0  0  0  0  0  0  0  0  0
    5.6310    0.5651    0.0000 C   0  0  0  0  0  0  0  0  0
    4.9165    0.1526    0.0000 N   0  0  0  0  0  0  0  0  0
    4.2021    0.5651    0.0000 C   0  0  0  0  0  0  0  0  0
    4.2021    1.3901    0.0000 C   0  0  0  0  0  0  0  0  0
    4.9165   -0.6724    0.0000 C   0  0  0  0  0  0  0  0  0
    4.2021   -1.0849    0.0000 O   0  0  0  0  0  0  0  0  0
    5.6310   -1.0849    0.0000 N   0  0  0  0  0  0  0  0  0
    5.6310   -1.9099    0.0000 C   0  0  0  0  0  0  0  0  0
    6.3455   -2.3224    0.0000 C   0  0  0  0  0  0  0  0  0
    6.3455   -3.1474    0.0000 C   0  0  0  0  0  0  0  0  0
    7.0599   -3.5599    0.0000 N   0  0  0  0  0  0  0  0  0
    7.7744   -3.1474    0.0000 C   0  0  0  0  0  0  0  0  0
    8.4889   -3.5599    0.0000 C   0  0  0  0  0  0  0  0  0
    8.4889   -4.3849    0.0000 N   0  0  0  0  0  0  0  0  0
    7.7744   -4.7974    0.0000 C   0  0  0  0  0  0  0  0  0
    7.0599   -4.3849    0.0000 C   0  0  0  0  0  0  0  0  0
    9.2034   -4.7974    0.0000 C   0  0  0  0  0  0  0  0  0
    5.6310   -3.5599    0.0000 C   0  0  0  0  0  0  0  0  0
    5.6310   -4.3849    0.0000 O   0  0  0  0  0  0  0  0  0
    4.9165   -4.7974    0.0000 C   0  0  0  0  0  0  0  0  0
    4.9165   -3.1474    0.0000 C   0  0  0  0  0  0  0  0  0
    4.9165   -2.3224    0.0000 C   0  0  0  0  0  0  0  0  0
    4.2021    3.0401    0.0000 C   0  0  0  0  0  0  0  0  0
    4.2021    3.8651    0.0000 C   0  0  0  0  0  0  0  0  0
  1  2  1  0  0  0  0
  2  3  4  0  0  0  0
  2 31  4  0  0  0  0
  3  4  4  0  0  0  0
  4  5  4  0  0  0  0
  5  6  1  0  0  0  0
  5 30  4  0  0  0  0
  6  7  1  0  0  0  0
  6 11  1  0  0  0  0
  7  8  1  0  0  0  0
  8  9  1  0  0  0  0
  9 10  1  0  0  0  0
  9 12  1  0  0  0  0
 10 11  1  0  0  0  0
 12 13  2  0  0  0  0
 12 14  1  0  0  0  0
 14 15  1  0  0  0  0
 15 16  4  0  0  0  0
 15 29  4  0  0  0  0
 16 17  4  0  0  0  0
 17 18  1  0  0  0  0
 17 25  4  0  0  0  0
 18 19  1  0  0  0  0
 18 23  1  0  0  0  0
 19 20  1  0  0  0  0
 20 21  1  0  0  0  0
 21 22  1  0  0  0  0
 21 24  1  0  0  0  0
 22 23  1  0  0  0  0
 25 26  1  0  0  0  0
 25 28  4  0  0  0  0
 26 27  1  0  0  0  0
 28 29  4  0  0  0  0
 30 31  4  0  0  0  0
M  END
>  <Name_Molregno>
327077

>  <5-HT1A>
5.97

>  <5-HT1B>
7.42

>  <5-HT1D>
6.77

>  <5-HT2A>
5.35

>  <5-HT2C>
5

>  <5-HT6>
5

>  <5-HT7>
5

>  <DOPAMINE D1>
5

>  <DOPAMINE D2>
5

>  <DOPAMINE D3>
5

>  <DOPAMINE D4>
5

>  <DOPAMINE D5>
5

>  <HISTAMINE H1>
5

>  <Muscarinic acetylcholine receptor M1>
5

>  <Muscarinic acetylcholine receptor M2>
5

>  <Muscarinic acetylcholine receptor M3>
5

>  <Muscarinic acetylcholine receptor M4>
5

>  <Muscarinic acetylcholine receptor M5>
5

$$$$
327082
  Marvin  02231216192D 0   1.00000     0.00000     0

 36 40  0  0  0  0  0  0  0  0999 V2000
   -4.3490    4.5404    0.0000 O   0  0  0  0  0  0  0  0  0
   -5.0635    4.9529    0.0000 C   0  0  0  0  0  0  0  0  0
   -4.3490    3.7154    0.0000 C   0  0  0  0  0  0  0  0  0
   -3.6345    3.3029    0.0000 C   0  0  0  0  0  0  0  0  0
   -3.6345    2.4779    0.0000 C   0  0  0  0  0  0  0  0  0
   -4.3490    2.0654    0.0000 C   0  0  0  0  0  0  0  0  0
   -4.3490    1.2404    0.0000 N   0  0  0  0  0  0  0  0  0
   -3.6345    0.8279    0.0000 C   0  0  0  0  0  0  0  0  0
   -2.9201    1.2404    0.0000 O   0  0  0  0  0  0  0  0  0
   -3.6345    0.0029    0.0000 N   0  0  0  0  0  0  0  0  0
   -2.9201   -0.4096    0.0000 C   0  0  0  0  0  0  0  0  0
   -2.9201   -1.2346    0.0000 C   0  0  0  0  0  0  0  0  0
   -3.6345   -1.6471    0.0000 N   0  0  0  0  0  0  0  0  0
   -4.3490   -1.2346    0.0000 C   0  0  0  0  0  0  0  0  0
   -4.3490   -0.4096    0.0000 C   0  0  0  0  0  0  0  0  0
   -3.6345   -2.4721    0.0000 C   0  0  0  0  0  0  0  0  0
   -2.9201   -2.8846    0.0000 C   0  0  0  0  0  0  0  0  0
   -2.9201   -3.7096    0.0000 C   0  0  0  0  0  0  0  0  0
   -3.6345   -4.1221    0.0000 C   0  0  0  0  0  0  0  0  0
   -4.3490   -3.7096    0.0000 C   0  0  0  0  0  0  0  0  0
   -4.3490   -2.8846    0.0000 C   0  0  0  0  0  0  0  0  0
   -3.6345   -4.9471    0.0000 C   0  0  0  0  0  0  0  0  0
   -2.9201   -5.3596    0.0000 C   0  0  0  0  0  0  0  0  0
   -2.9201   -6.1846    0.0000 C   0  0  0  0  0  0  0  0  0
   -3.6345   -6.5971    0.0000 C   0  0  0  0  0  0  0  0  0
   -4.3490   -6.1846    0.0000 C   0  0  0  0  0  0  0  0  0
   -4.3490   -5.3596    0.0000 C   0  0  0  0  0  0  0  0  0
   -5.0635    2.4779    0.0000 C   0  0  0  0  0  0  0  0  0
   -5.0635    3.3029    0.0000 C   0  0  0  0  0  0  0  0  0
   -5.7779    3.7154    0.0000 N   0  0  0  0  0  0  0  0  0
   -6.4924    3.3029    0.0000 C   0  0  0  0  0  0  0  0  0
   -7.2069    3.7154    0.0000 C   0  0  0  0  0  0  0  0  0
   -7.2069    4.5404    0.0000 N   0  0  0  0  0  0  0  0  0
   -6.4924    4.9529    0.0000 C   0  0  0  0  0  0  0  0  0
   -5.7779    4.5404    0.0000 C   0  0  0  0  0  0  0  0  0
   -7.9214    4.9529    0.0000 C   0  0  0  0  0  0  0  0  0
  1  2  1  0  0  0  0
  1  3  1  0  0  0  0
  3  4  4  0  0  0  0
  3 29  4  0  0  0  0
  4  5  4  0  0  0  0
  5  6  4  0  0  0  0
  6  7  1  0  0  0  0
  6 28  4  0  0  0  0
  7  8  1  0  0  0  0
  8  9  2  0  0  0  0
  8 10  1  0  0  0  0
 10 11  1  0  0  0  0
 10 15  1  0  0  0  0
 11 12  1  0  0  0  0
 12 13  1  0  0  0  0
 13 14  1  0  0  0  0
 13 16  1  0  0  0  0
 14 15  1  0  0  0  0
 16 17  4  0  0  0  0
 16 21  4  0  0  0  0
 17 18  4  0  0  0  0
 18 19  4  0  0  0  0
 19 20  4  0  0  0  0
 19 22  1  0  0  0  0
 20 21  4  0  0  0  0
 22 23  4  0  0  0  0
 22 27  4  0  0  0  0
 23 24  4  0  0  0  0
 24 25  4  0  0  0  0
 25 26  4  0  0  0  0
 26 27  4  0  0  0  0
 28 29  4  0  0  0  0
 29 30  1  0  0  0  0
 30 31  1  0  0  0  0
 30 35  1  0  0  0  0
 31 32  1  0  0  0  0
 32 33  1  0  0  0  0
 33 34  1  0  0  0  0
 33 36  1  0  0  0  0
 34 35  1  0  0  0  0
M  END
>  <Name_Molregno>
327082

>  <5-HT1A>
6.39

>  <5-HT1B>
7.86

>  <5-HT1D>
6.68

>  <5-HT2A>
6.77

>  <5-HT2C>
8.19

>  <5-HT6>
5.84

>  <5-HT7>
5

>  <DOPAMINE D1>
5

>  <DOPAMINE D2>
5

>  <DOPAMINE D3>
5

>  <DOPAMINE D4>
5

>  <DOPAMINE D5>
5

>  <HISTAMINE H1>
5

>  <Muscarinic acetylcholine receptor M1>
5

>  <Muscarinic acetylcholine receptor M2>
5

>  <Muscarinic acetylcholine receptor M3>
5

>  <Muscarinic acetylcholine receptor M4>
5

>  <Muscarinic acetylcholine receptor M5>
5

$$$$
327083
  Marvin  02231216192D 0   1.00000     0.00000     0

 34 37  0  0  0  0  0  0  0  0999 V2000
    5.2566    5.4075    0.0000 F   0  0  0  0  0  0  0  0  0
    5.2566    4.5825    0.0000 C   0  0  0  0  0  0  0  0  0
    4.4316    4.5825    0.0000 F   0  0  0  0  0  0  0  0  0
    6.0816    4.5825    0.0000 F   0  0  0  0  0  0  0  0  0
    5.2566    3.7575    0.0000 C   0  0  0  0  0  0  0  0  0
    5.9711    3.3450    0.0000 C   0  0  0  0  0  0  0  0  0
    5.9711    2.5200    0.0000 C   0  0  0  0  0  0  0  0  0
    5.2566    2.1075    0.0000 C   0  0  0  0  0  0  0  0  0
    5.2566    1.2825    0.0000 N   0  0  0  0  0  0  0  0  0
    5.9711    0.8700    0.0000 C   0  0  0  0  0  0  0  0  0
    5.9711    0.0450    0.0000 C   0  0  0  0  0  0  0  0  0
    5.2566   -0.3675    0.0000 N   0  0  0  0  0  0  0  0  0
    4.5421    0.0450    0.0000 C   0  0  0  0  0  0  0  0  0
    4.5421    0.8700    0.0000 C   0  0  0  0  0  0  0  0  0
    5.2566   -1.1925    0.0000 C   0  0  0  0  0  0  0  0  0
    4.5421   -1.6050    0.0000 O   0  0  0  0  0  0  0  0  0
    5.9711   -1.6050    0.0000 N   0  0  0  0  0  0  0  0  0
    5.9711   -2.4300    0.0000 C   0  0  0  0  0  0  0  0  0
    6.6855   -2.8425    0.0000 C   0  0  0  0  0  0  0  0  0
    6.6855   -3.6675    0.0000 C   0  0  0  0  0  0  0  0  0
    7.4000   -4.0800    0.0000 N   0  0  0  0  0  0  0  0  0
    8.1145   -3.6675    0.0000 C   0  0  0  0  0  0  0  0  0
    8.8289   -4.0800    0.0000 C   0  0  0  0  0  0  0  0  0
    8.8289   -4.9050    0.0000 N   0  0  0  0  0  0  0  0  0
    8.1145   -5.3175    0.0000 C   0  0  0  0  0  0  0  0  0
    7.4000   -4.9050    0.0000 C   0  0  0  0  0  0  0  0  0
    9.5434   -5.3175    0.0000 C   0  0  0  0  0  0  0  0  0
    5.9711   -4.0800    0.0000 C   0  0  0  0  0  0  0  0  0
    5.9711   -4.9050    0.0000 O   0  0  0  0  0  0  0  0  0
    5.2566   -5.3175    0.0000 C   0  0  0  0  0  0  0  0  0
    5.2566   -3.6675    0.0000 C   0  0  0  0  0  0  0  0  0
    5.2566   -2.8425    0.0000 C   0  0  0  0  0  0  0  0  0
    4.5421    2.5200    0.0000 C   0  0  0  0  0  0  0  0  0
    4.5421    3.3450    0.0000 C   0  0  0  0  0  0  0  0  0
  1  2  1  0  0  0  0
  2  3  1  0  0  0  0
  2  4  1  0  0  0  0
  2  5  1  0  0  0  0
  5  6  4  0  0  0  0
  5 34  4  0  0  0  0
  6  7  4  0  0  0  0
  7  8  4  0  0  0  0
  8  9  1  0  0  0  0
  8 33  4  0  0  0  0
  9 10  1  0  0  0  0
  9 14  1  0  0  0  0
 10 11  1  0  0  0  0
 11 12  1  0  0  0  0
 12 13  1  0  0  0  0
 12 15  1  0  0  0  0
 13 14  1  0  0  0  0
 15 16  2  0  0  0  0
 15 17  1  0  0  0  0
 17 18  1  0  0  0  0
 18 19  4  0  0  0  0
 18 32  4  0  0  0  0
 19 20  4  0  0  0  0
 20 21  1  0  0  0  0
 20 28  4  0  0  0  0
 21 22  1  0  0  0  0
 21 26  1  0  0  0  0
 22 23  1  0  0  0  0
 23 24  1  0  0  0  0
 24 25  1  0  0  0  0
 24 27  1  0  0  0  0
 25 26  1  0  0  0  0
 28 29  1  0  0  0  0
 28 31  4  0  0  0  0
 29 30  1  0  0  0  0
 31 32  4  0  0  0  0
 33 34  4  0  0  0  0
M  END
>  <Name_Molregno>
327083

>  <5-HT1A>
6.42

>  <5-HT1B>
7.55

>  <5-HT1D>
6.46

>  <5-HT2A>
6.21

>  <5-HT2C>
5.55

>  <5-HT6>
5.54

>  <5-HT7>
5

>  <DOPAMINE D1>
5

>  <DOPAMINE D2>
5

>  <DOPAMINE D3>
5

>  <DOPAMINE D4>
5

>  <DOPAMINE D5>
5

>  <HISTAMINE H1>
5

>  <Muscarinic acetylcholine receptor M1>
5

>  <Muscarinic acetylcholine receptor M2>
5

>  <Muscarinic acetylcholine receptor M3>
5

>  <Muscarinic acetylcholine receptor M4>
5

>  <Muscarinic acetylcholine receptor M5>
5

$$$$
327090
  Marvin  02231216192D 0   1.00000     0.00000     0

 32 35  0  0  0  0  0  0  0  0999 V2000
   -6.3746    6.5338    0.0000 S   0  0  0  0  0  0  0  0  0
   -7.0891    6.9463    0.0000 C   0  0  0  0  0  0  0  0  0
   -6.3746    5.7088    0.0000 C   0  0  0  0  0  0  0  0  0
   -5.6602    5.2963    0.0000 C   0  0  0  0  0  0  0  0  0
   -5.6602    4.4713    0.0000 C   0  0  0  0  0  0  0  0  0
   -6.3746    4.0588    0.0000 C   0  0  0  0  0  0  0  0  0
   -6.3746    3.2338    0.0000 N   0  0  0  0  0  0  0  0  0
   -5.6602    2.8213    0.0000 C   0  0  0  0  0  0  0  0  0
   -5.6602    1.9963    0.0000 C   0  0  0  0  0  0  0  0  0
   -6.3746    1.5838    0.0000 N   0  0  0  0  0  0  0  0  0
   -7.0891    1.9963    0.0000 C   0  0  0  0  0  0  0  0  0
   -7.0891    2.8213    0.0000 C   0  0  0  0  0  0  0  0  0
   -6.3746    0.7588    0.0000 C   0  0  0  0  0  0  0  0  0
   -7.0891    0.3463    0.0000 O   0  0  0  0  0  0  0  0  0
   -5.6602    0.3463    0.0000 N   0  0  0  0  0  0  0  0  0
   -5.6602   -0.4787    0.0000 C   0  0  0  0  0  0  0  0  0
   -4.9457   -0.8912    0.0000 C   0  0  0  0  0  0  0  0  0
   -4.9457   -1.7162    0.0000 C   0  0  0  0  0  0  0  0  0
   -4.2312   -2.1287    0.0000 N   0  0  0  0  0  0  0  0  0
   -3.5167   -1.7162    0.0000 C   0  0  0  0  0  0  0  0  0
   -2.8023   -2.1287    0.0000 C   0  0  0  0  0  0  0  0  0
   -2.8023   -2.9537    0.0000 N   0  0  0  0  0  0  0  0  0
   -3.5167   -3.3662    0.0000 C   0  0  0  0  0  0  0  0  0
   -4.2312   -2.9537    0.0000 C   0  0  0  0  0  0  0  0  0
   -2.0878   -3.3662    0.0000 C   0  0  0  0  0  0  0  0  0
   -5.6602   -2.1287    0.0000 C   0  0  0  0  0  0  0  0  0
   -5.6602   -2.9537    0.0000 O   0  0  0  0  0  0  0  0  0
   -6.3746   -3.3662    0.0000 C   0  0  0  0  0  0  0  0  0
   -6.3746   -1.7162    0.0000 C   0  0  0  0  0  0  0  0  0
   -6.3746   -0.8912    0.0000 C   0  0  0  0  0  0  0  0  0
   -7.0891    4.4713    0.0000 C   0  0  0  0  0  0  0  0  0
   -7.0891    5.2963    0.0000 C   0  0  0  0  0  0  0  0  0
  1  2  1  0  0  0  0
  1  3  1  0  0  0  0
  3  4  4  0  0  0  0
  3 32  4  0  0  0  0
  4  5  4  0  0  0  0
  5  6  4  0  0  0  0
  6  7  1  0  0  0  0
  6 31  4  0  0  0  0
  7  8  1  0  0  0  0
  7 12  1  0  0  0  0
  8  9  1  0  0  0  0
  9 10  1  0  0  0  0
 10 11  1  0  0  0  0
 10 13  1  0  0  0  0
 11 12  1  0  0  0  0
 13 14  2  0  0  0  0
 13 15  1  0  0  0  0
 15 16  1  0  0  0  0
 16 17  4  0  0  0  0
 16 30  4  0  0  0  0
 17 18  4  0  0  0  0
 18 19  1  0  0  0  0
 18 26  4  0  0  0  0
 19 20  1  0  0  0  0
 19 24  1  0  0  0  0
 20 21  1  0  0  0  0
 21 22  1  0  0  0  0
 22 23  1  0  0  0  0
 22 25  1  0  0  0  0
 23 24  1  0  0  0  0
 26 27  1  0  0  0  0
 26 29  4  0  0  0  0
 27 28  1  0  0  0  0
 29 30  4  0  0  0  0
 31 32  4  0  0  0  0
M  END
>  <Name_Molregno>
327090

>  <5-HT1A>
6.05

>  <5-HT1B>
7.78

>  <5-HT1D>
6.48

>  <5-HT2A>
5.87

>  <5-HT2C>
5.94

>  <5-HT6>
5

>  <5-HT7>
5

>  <DOPAMINE D1>
5

>  <DOPAMINE D2>
5

>  <DOPAMINE D3>
5

>  <DOPAMINE D4>
5

>  <DOPAMINE D5>
5

>  <HISTAMINE H1>
5

>  <Muscarinic acetylcholine receptor M1>
5

>  <Muscarinic acetylcholine receptor M2>
5

>  <Muscarinic acetylcholine receptor M3>
5

>  <Muscarinic acetylcholine receptor M4>
5

>  <Muscarinic acetylcholine receptor M5>
5

$$$$
327091
  Marvin  02231216192D 0   1.00000     0.00000     0

 32 35  0  0  0  0  0  0  0  0999 V2000
    3.7835    3.5848    0.0000 O   0  0  0  0  0  0  0  0  0
    3.0690    3.9973    0.0000 C   0  0  0  0  0  0  0  0  0
    3.7835    2.7598    0.0000 C   0  0  0  0  0  0  0  0  0
    4.4980    2.3473    0.0000 C   0  0  0  0  0  0  0  0  0
    4.4980    1.5223    0.0000 C   0  0  0  0  0  0  0  0  0
    3.7835    1.1098    0.0000 C   0  0  0  0  0  0  0  0  0
    3.7835    0.2848    0.0000 N   0  0  0  0  0  0  0  0  0
    4.4980   -0.1277    0.0000 C   0  0  0  0  0  0  0  0  0
    5.2124    0.2848    0.0000 O   0  0  0  0  0  0  0  0  0
    4.4980   -0.9527    0.0000 C   0  0  0  0  0  0  0  0  0
    5.2124   -1.3652    0.0000 C   0  0  0  0  0  0  0  0  0
    5.2124   -2.1902    0.0000 C   0  0  0  0  0  0  0  0  0
    4.4980   -2.6027    0.0000 N   0  0  0  0  0  0  0  0  0
    3.7835   -2.1902    0.0000 C   0  0  0  0  0  0  0  0  0
    3.7835   -1.3652    0.0000 C   0  0  0  0  0  0  0  0  0
    4.4980   -3.4277    0.0000 C   0  0  0  0  0  0  0  0  0
    5.2124   -3.8402    0.0000 C   0  0  0  0  0  0  0  0  0
    5.2124   -4.6652    0.0000 C   0  0  0  0  0  0  0  0  0
    4.4980   -5.0777    0.0000 C   0  0  0  0  0  0  0  0  0
    3.7835   -4.6652    0.0000 C   0  0  0  0  0  0  0  0  0
    3.7835   -3.8402    0.0000 C   0  0  0  0  0  0  0  0  0
    3.0690   -3.4277    0.0000 O   0  0  0  0  0  0  0  0  0
    2.3546   -3.8402    0.0000 C   0  0  0  0  0  0  0  0  0
    3.0690    1.5223    0.0000 C   0  0  0  0  0  0  0  0  0
    3.0690    2.3473    0.0000 C   0  0  0  0  0  0  0  0  0
    2.3546    2.7598    0.0000 N   0  0  0  0  0  0  0  0  0
    1.6401    2.3473    0.0000 C   0  0  0  0  0  0  0  0  0
    0.9256    2.7598    0.0000 C   0  0  0  0  0  0  0  0  0
    0.9256    3.5848    0.0000 N   0  0  0  0  0  0  0  0  0
    1.6401    3.9973    0.0000 C   0  0  0  0  0  0  0  0  0
    2.3546    3.5848    0.0000 C   0  0  0  0  0  0  0  0  0
    0.2111    3.9973    0.0000 C   0  0  0  0  0  0  0  0  0
  1  2  1  0  0  0  0
  1  3  1  0  0  0  0
  3  4  4  0  0  0  0
  3 25  4  0  0  0  0
  4  5  4  0  0  0  0
  5  6  4  0  0  0  0
  6  7  1  0  0  0  0
  6 24  4  0  0  0  0
  7  8  1  0  0  0  0
  8  9  2  0  0  0  0
  8 10  1  0  0  0  0
 10 11  1  0  0  0  0
 10 15  1  0  0  0  0
 11 12  1  0  0  0  0
 12 13  1  0  0  0  0
 13 14  1  0  0  0  0
 13 16  1  0  0  0  0
 14 15  1  0  0  0  0
 16 17  4  0  0  0  0
 16 21  4  0  0  0  0
 17 18  4  0  0  0  0
 18 19  4  0  0  0  0
 19 20  4  0  0  0  0
 20 21  4  0  0  0  0
 21 22  1  0  0  0  0
 22 23  1  0  0  0  0
 24 25  4  0  0  0  0
 25 26  1  0  0  0  0
 26 27  1  0  0  0  0
 26 31  1  0  0  0  0
 27 28  1  0  0  0  0
 28 29  1  0  0  0  0
 29 30  1  0  0  0  0
 29 32  1  0  0  0  0
 30 31  1  0  0  0  0
M  END
>  <Name_Molregno>
327091

>  <5-HT1A>
7.81

>  <5-HT1B>
8.01

>  <5-HT1D>
7.81

>  <5-HT2A>
5

>  <5-HT2C>
5

>  <DOPAMINE D1>
5

>  <DOPAMINE D2>
5

>  <DOPAMINE D3>
5

>  <DOPAMINE D4>
5

>  <DOPAMINE D5>
5

>  <HISTAMINE H1>
5

>  <Muscarinic acetylcholine receptor M1>
5

>  <Muscarinic acetylcholine receptor M2>
5

>  <Muscarinic acetylcholine receptor M3>
5

>  <Muscarinic acetylcholine receptor M4>
5

>  <Muscarinic acetylcholine receptor M5>
5

$$$$
327286
  Marvin  02231216192D 0   1.00000     0.00000     0

 28 30  0  0  0  0  0  0  0  0999 V2000
    0.2084    2.6536    0.0000 F   0  0  0  0  0  0  0  0  0
    0.9228    2.2411    0.0000 C   0  0  0  0  0  0  0  0  0
    1.6373    2.6536    0.0000 C   0  0  0  0  0  0  0  0  0
    2.3518    2.2411    0.0000 C   0  0  0  0  0  0  0  0  0
    2.3518    1.4161    0.0000 C   0  0  0  0  0  0  0  0  0
    1.6373    1.0036    0.0000 C   0  0  0  0  0  0  0  0  0
    0.9228    1.4161    0.0000 C   0  0  0  0  0  0  0  0  0
    3.0662    1.0036    0.0000 C   0  0  0  0  0  0  0  0  0
    3.0662    0.1786    0.0000 O   0  0  0  0  0  0  0  0  0
    3.7807    1.4161    0.0000 N   0  0  0  0  0  0  0  0  0
    4.4952    1.0036    0.0000 C   0  0  0  0  0  0  0  0  0
    5.2097    1.4161    0.0000 C   0  0  0  0  0  0  0  0  0
    5.9241    1.0036    0.0000 C   0  0  0  0  0  0  0  0  0
    6.6386    1.4161    0.0000 C   0  0  0  0  0  0  0  0  0
    7.3531    1.0036    0.0000 N   0  0  0  0  0  0  0  0  0
    8.0675    1.4161    0.0000 C   0  0  0  0  0  0  0  0  0
    8.7820    1.0036    0.0000 C   0  0  0  0  0  0  0  0  0
    8.7820    0.1786    0.0000 N   0  0  0  0  0  0  0  0  0
    8.0675   -0.2339    0.0000 C   0  0  0  0  0  0  0  0  0
    7.3531    0.1786    0.0000 C   0  0  0  0  0  0  0  0  0
    9.4965   -0.2339    0.0000 C   0  0  0  0  0  0  0  0  0
   10.2110    0.1786    0.0000 C   0  0  0  0  0  0  0  0  0
   10.9254   -0.2339    0.0000 C   0  0  0  0  0  0  0  0  0
   10.9254   -1.0589    0.0000 C   0  0  0  0  0  0  0  0  0
   10.2110   -1.4714    0.0000 C   0  0  0  0  0  0  0  0  0
    9.4965   -1.0589    0.0000 C   0  0  0  0  0  0  0  0  0
    8.7820   -1.4714    0.0000 O   0  0  0  0  0  0  0  0  0
    8.7820   -2.2964    0.0000 C   0  0  0  0  0  0  0  0  0
  1  2  1  0  0  0  0
  2  3  4  0  0  0  0
  2  7  4  0  0  0  0
  3  4  4  0  0  0  0
  4  5  4  0  0  0  0
  5  6  4  0  0  0  0
  5  8  1  0  0  0  0
  6  7  4  0  0  0  0
  8  9  2  0  0  0  0
  8 10  1  0  0  0  0
 10 11  1  0  0  0  0
 11 12  1  0  0  0  0
 12 13  1  0  0  0  0
 13 14  1  0  0  0  0
 14 15  1  0  0  0  0
 15 16  1  0  0  0  0
 15 20  1  0  0  0  0
 16 17  1  0  0  0  0
 17 18  1  0  0  0  0
 18 19  1  0  0  0  0
 18 21  1  0  0  0  0
 19 20  1  0  0  0  0
 21 22  4  0  0  0  0
 21 26  4  0  0  0  0
 22 23  4  0  0  0  0
 23 24  4  0  0  0  0
 24 25  4  0  0  0  0
 25 26  4  0  0  0  0
 26 27  1  0  0  0  0
 27 28  1  0  0  0  0
M  END
>  <Name_Molregno>
327286

>  <DOPAMINE D2>
6.93

>  <DOPAMINE D3>
8.37

>  <DOPAMINE D4>
7.47

$$$$
327291
  Marvin  02231216192D 0   1.00000     0.00000     0

 28 30  0  0  0  0  0  0  0  0999 V2000
   -7.9084    0.0087    0.0000 Cl  0  0  0  0  0  0  0  0  0
   -7.9084   -0.8163    0.0000 C   0  0  0  0  0  0  0  0  0
   -7.1939   -1.2288    0.0000 C   0  0  0  0  0  0  0  0  0
   -6.4795   -0.8163    0.0000 N   0  0  0  0  0  0  0  0  0
   -6.4795    0.0087    0.0000 C   0  0  0  0  0  0  0  0  0
   -5.7650    0.4212    0.0000 C   0  0  0  0  0  0  0  0  0
   -5.0505    0.0087    0.0000 N   0  0  0  0  0  0  0  0  0
   -5.0505   -0.8163    0.0000 C   0  0  0  0  0  0  0  0  0
   -5.7650   -1.2288    0.0000 C   0  0  0  0  0  0  0  0  0
   -4.3360    0.4212    0.0000 C   0  0  0  0  0  0  0  0  0
   -3.6216    0.0087    0.0000 C   0  0  0  0  0  0  0  0  0
   -2.9071    0.4212    0.0000 C   0  0  0  0  0  0  0  0  0
   -2.1926    0.0087    0.0000 C   0  0  0  0  0  0  0  0  0
   -1.4782    0.4212    0.0000 N   0  0  0  0  0  0  0  0  0
   -0.7637    0.0087    0.0000 C   0  0  0  0  0  0  0  0  0
   -0.7637   -0.8163    0.0000 O   0  0  0  0  0  0  0  0  0
   -0.0492    0.4212    0.0000 C   0  0  0  0  0  0  0  0  0
   -0.0492    1.2462    0.0000 C   0  0  0  0  0  0  0  0  0
    0.6653    1.6587    0.0000 C   0  0  0  0  0  0  0  0  0
    1.3797    1.2462    0.0000 C   0  0  0  0  0  0  0  0  0
    2.0942    1.6587    0.0000 F   0  0  0  0  0  0  0  0  0
    1.3797    0.4212    0.0000 C   0  0  0  0  0  0  0  0  0
    0.6653    0.0087    0.0000 C   0  0  0  0  0  0  0  0  0
   -7.1939   -2.0538    0.0000 C   0  0  0  0  0  0  0  0  0
   -7.9084   -2.4663    0.0000 C   0  0  0  0  0  0  0  0  0
   -8.6229   -2.0538    0.0000 C   0  0  0  0  0  0  0  0  0
   -8.6229   -1.2288    0.0000 C   0  0  0  0  0  0  0  0  0
   -9.3373   -0.8163    0.0000 Cl  0  0  0  0  0  0  0  0  0
  1  2  1  0  0  0  0
  2  3  4  0  0  0  0
  2 27  4  0  0  0  0
  3  4  1  0  0  0  0
  3 24  4  0  0  0  0
  4  5  1  0  0  0  0
  4  9  1  0  0  0  0
  5  6  1  0  0  0  0
  6  7  1  0  0  0  0
  7  8  1  0  0  0  0
  7 10  1  0  0  0  0
  8  9  1  0  0  0  0
 10 11  1  0  0  0  0
 11 12  1  0  0  0  0
 12 13  1  0  0  0  0
 13 14  1  0  0  0  0
 14 15  1  0  0  0  0
 15 16  2  0  0  0  0
 15 17  1  0  0  0  0
 17 18  4  0  0  0  0
 17 23  4  0  0  0  0
 18 19  4  0  0  0  0
 19 20  4  0  0  0  0
 20 21  1  0  0  0  0
 20 22  4  0  0  0  0
 22 23  4  0  0  0  0
 24 25  4  0  0  0  0
 25 26  4  0  0  0  0
 26 27  4  0  0  0  0
 27 28  1  0  0  0  0
M  END
>  <Name_Molregno>
327291

>  <DOPAMINE D2>
7.75

>  <DOPAMINE D3>
9.28

>  <DOPAMINE D4>
7.36

$$$$
327292
  Marvin  02231216192D 0   1.00000     0.00000     0

 28 30  0  0  0  0  0  0  0  0999 V2000
    0.2084    2.6536    0.0000 F   0  0  0  0  0  0  0  0  0
    0.9228    2.2411    0.0000 C   0  0  0  0  0  0  0  0  0
    1.6373    2.6536    0.0000 N   0  0  0  0  0  0  0  0  0
    2.3518    2.2411    0.0000 C   0  0  0  0  0  0  0  0  0
    2.3518    1.4161    0.0000 C   0  0  0  0  0  0  0  0  0
    1.6373    1.0036    0.0000 C   0  0  0  0  0  0  0  0  0
    0.9228    1.4161    0.0000 C   0  0  0  0  0  0  0  0  0
    3.0662    1.0036    0.0000 C   0  0  0  0  0  0  0  0  0
    3.0662    0.1786    0.0000 O   0  0  0  0  0  0  0  0  0
    3.7807    1.4161    0.0000 N   0  0  0  0  0  0  0  0  0
    4.4952    1.0036    0.0000 C   0  0  0  0  0  0  0  0  0
    5.2097    1.4161    0.0000 C   0  0  0  0  0  0  0  0  0
    5.9241    1.0036    0.0000 C   0  0  0  0  0  0  0  0  0
    6.6386    1.4161    0.0000 C   0  0  0  0  0  0  0  0  0
    7.3531    1.0036    0.0000 N   0  0  0  0  0  0  0  0  0
    8.0675    1.4161    0.0000 C   0  0  0  0  0  0  0  0  0
    8.7820    1.0036    0.0000 C   0  0  0  0  0  0  0  0  0
    8.7820    0.1786    0.0000 N   0  0  0  0  0  0  0  0  0
    8.0675   -0.2339    0.0000 C   0  0  0  0  0  0  0  0  0
    7.3531    0.1786    0.0000 C   0  0  0  0  0  0  0  0  0
    9.4965   -0.2339    0.0000 C   0  0  0  0  0  0  0  0  0
   10.2110    0.1786    0.0000 C   0  0  0  0  0  0  0  0  0
   10.9254   -0.2339    0.0000 C   0  0  0  0  0  0  0  0  0
   10.9254   -1.0589    0.0000 C   0  0  0  0  0  0  0  0  0
   10.2110   -1.4714    0.0000 C   0  0  0  0  0  0  0  0  0
    9.4965   -1.0589    0.0000 C   0  0  0  0  0  0  0  0  0
    8.7820   -1.4714    0.0000 O   0  0  0  0  0  0  0  0  0
    8.7820   -2.2964    0.0000 C   0  0  0  0  0  0  0  0  0
  1  2  1  0  0  0  0
  2  3  4  0  0  0  0
  2  7  4  0  0  0  0
  3  4  4  0  0  0  0
  4  5  4  0  0  0  0
  5  6  4  0  0  0  0
  5  8  1  0  0  0  0
  6  7  4  0  0  0  0
  8  9  2  0  0  0  0
  8 10  1  0  0  0  0
 10 11  1  0  0  0  0
 11 12  1  0  0  0  0
 12 13  1  0  0  0  0
 13 14  1  0  0  0  0
 14 15  1  0  0  0  0
 15 16  1  0  0  0  0
 15 20  1  0  0  0  0
 16 17  1  0  0  0  0
 17 18  1  0  0  0  0
 18 19  1  0  0  0  0
 18 21  1  0  0  0  0
 19 20  1  0  0  0  0
 21 22  4  0  0  0  0
 21 26  4  0  0  0  0
 22 23  4  0  0  0  0
 23 24  4  0  0  0  0
 24 25  4  0  0  0  0
 25 26  4  0  0  0  0
 26 27  1  0  0  0  0
 27 28  1  0  0  0  0
M  END
>  <Name_Molregno>
327292

>  <DOPAMINE D2>
6.71

>  <DOPAMINE D3>
7.85

>  <DOPAMINE D4>
6.89

$$$$
327299
  Marvin  02231216192D 0   1.00000     0.00000     0

 28 30  0  0  0  0  0  0  0  0999 V2000
   -7.9084    0.0087    0.0000 Cl  0  0  0  0  0  0  0  0  0
   -7.9084   -0.8163    0.0000 C   0  0  0  0  0  0  0  0  0
   -7.1939   -1.2288    0.0000 C   0  0  0  0  0  0  0  0  0
   -6.4795   -0.8163    0.0000 N   0  0  0  0  0  0  0  0  0
   -6.4795    0.0087    0.0000 C   0  0  0  0  0  0  0  0  0
   -5.7650    0.4212    0.0000 C   0  0  0  0  0  0  0  0  0
   -5.0505    0.0087    0.0000 N   0  0  0  0  0  0  0  0  0
   -5.0505   -0.8163    0.0000 C   0  0  0  0  0  0  0  0  0
   -5.7650   -1.2288    0.0000 C   0  0  0  0  0  0  0  0  0
   -4.3360    0.4212    0.0000 C   0  0  0  0  0  0  0  0  0
   -3.6216    0.0087    0.0000 C   0  0  0  0  0  0  0  0  0
   -2.9071    0.4212    0.0000 C   0  0  0  0  0  0  0  0  0
   -2.1926    0.0087    0.0000 C   0  0  0  0  0  0  0  0  0
   -1.4782    0.4212    0.0000 N   0  0  0  0  0  0  0  0  0
   -0.7637    0.0087    0.0000 C   0  0  0  0  0  0  0  0  0
   -0.7637   -0.8163    0.0000 O   0  0  0  0  0  0  0  0  0
   -0.0492    0.4212    0.0000 C   0  0  0  0  0  0  0  0  0
   -0.0492    1.2462    0.0000 C   0  0  0  0  0  0  0  0  0
    0.6653    1.6587    0.0000 C   0  0  0  0  0  0  0  0  0
    1.3797    1.2462    0.0000 C   0  0  0  0  0  0  0  0  0
    2.0942    1.6587    0.0000 F   0  0  0  0  0  0  0  0  0
    1.3797    0.4212    0.0000 N   0  0  0  0  0  0  0  0  0
    0.6653    0.0087    0.0000 C   0  0  0  0  0  0  0  0  0
   -7.1939   -2.0538    0.0000 C   0  0  0  0  0  0  0  0  0
   -7.9084   -2.4663    0.0000 C   0  0  0  0  0  0  0  0  0
   -8.6229   -2.0538    0.0000 C   0  0  0  0  0  0  0  0  0
   -8.6229   -1.2288    0.0000 C   0  0  0  0  0  0  0  0  0
   -9.3373   -0.8163    0.0000 Cl  0  0  0  0  0  0  0  0  0
  1  2  1  0  0  0  0
  2  3  4  0  0  0  0
  2 27  4  0  0  0  0
  3  4  1  0  0  0  0
  3 24  4  0  0  0  0
  4  5  1  0  0  0  0
  4  9  1  0  0  0  0
  5  6  1  0  0  0  0
  6  7  1  0  0  0  0
  7  8  1  0  0  0  0
  7 10  1  0  0  0  0
  8  9  1  0  0  0  0
 10 11  1  0  0  0  0
 11 12  1  0  0  0  0
 12 13  1  0  0  0  0
 13 14  1  0  0  0  0
 14 15  1  0  0  0  0
 15 16  2  0  0  0  0
 15 17  1  0  0  0  0
 17 18  4  0  0  0  0
 17 23  4  0  0  0  0
 18 19  4  0  0  0  0
 19 20  4  0  0  0  0
 20 21  1  0  0  0  0
 20 22  4  0  0  0  0
 22 23  4  0  0  0  0
 24 25  4  0  0  0  0
 25 26  4  0  0  0  0
 26 27  4  0  0  0  0
 27 28  1  0  0  0  0
M  END
>  <Name_Molregno>
327299

>  <DOPAMINE D2>
7.61

>  <DOPAMINE D3>
8.96

>  <DOPAMINE D4>
7

$$$$
327300
  Marvin  02231216192D 0   1.00000     0.00000     0

 28 30  0  0  0  0  0  0  0  0999 V2000
    1.3492    3.1026    0.0000 F   0  0  0  0  0  0  0  0  0
    1.3492    2.2776    0.0000 C   0  0  0  0  0  0  0  0  0
    2.0636    1.8651    0.0000 N   0  0  0  0  0  0  0  0  0
    2.0636    1.0401    0.0000 C   0  0  0  0  0  0  0  0  0
    1.3492    0.6276    0.0000 C   0  0  0  0  0  0  0  0  0
    0.6347    1.0401    0.0000 C   0  0  0  0  0  0  0  0  0
    0.6347    1.8651    0.0000 C   0  0  0  0  0  0  0  0  0
    2.7781    0.6276    0.0000 C   0  0  0  0  0  0  0  0  0
    2.7781   -0.1974    0.0000 O   0  0  0  0  0  0  0  0  0
    3.4926    1.0401    0.0000 N   0  0  0  0  0  0  0  0  0
    4.2070    0.6276    0.0000 C   0  0  0  0  0  0  0  0  0
    4.9215    1.0401    0.0000 C   0  0  0  0  0  0  0  0  0
    5.6360    0.6276    0.0000 C   0  0  0  0  0  0  0  0  0
    6.3505    1.0401    0.0000 C   0  0  0  0  0  0  0  0  0
    7.0649    0.6276    0.0000 N   0  0  0  0  0  0  0  0  0
    7.7794    1.0401    0.0000 C   0  0  0  0  0  0  0  0  0
    8.4939    0.6276    0.0000 C   0  0  0  0  0  0  0  0  0
    8.4939   -0.1974    0.0000 N   0  0  0  0  0  0  0  0  0
    7.7794   -0.6099    0.0000 C   0  0  0  0  0  0  0  0  0
    7.0649   -0.1974    0.0000 C   0  0  0  0  0  0  0  0  0
    9.2083   -0.6099    0.0000 C   0  0  0  0  0  0  0  0  0
    9.9228   -0.1974    0.0000 C   0  0  0  0  0  0  0  0  0
   10.6373   -0.6099    0.0000 C   0  0  0  0  0  0  0  0  0
   10.6373   -1.4349    0.0000 C   0  0  0  0  0  0  0  0  0
    9.9228   -1.8474    0.0000 C   0  0  0  0  0  0  0  0  0
    9.2083   -1.4349    0.0000 C   0  0  0  0  0  0  0  0  0
    8.4939   -1.8474    0.0000 O   0  0  0  0  0  0  0  0  0
    8.4939   -2.6724    0.0000 C   0  0  0  0  0  0  0  0  0
  1  2  1  0  0  0  0
  2  3  4  0  0  0  0
  2  7  4  0  0  0  0
  3  4  4  0  0  0  0
  4  5  4  0  0  0  0
  4  8  1  0  0  0  0
  5  6  4  0  0  0  0
  6  7  4  0  0  0  0
  8  9  2  0  0  0  0
  8 10  1  0  0  0  0
 10 11  1  0  0  0  0
 11 12  1  0  0  0  0
 12 13  1  0  0  0  0
 13 14  1  0  0  0  0
 14 15  1  0  0  0  0
 15 16  1  0  0  0  0
 15 20  1  0  0  0  0
 16 17  1  0  0  0  0
 17 18  1  0  0  0  0
 18 19  1  0  0  0  0
 18 21  1  0  0  0  0
 19 20  1  0  0  0  0
 21 22  4  0  0  0  0
 21 26  4  0  0  0  0
 22 23  4  0  0  0  0
 23 24  4  0  0  0  0
 24 25  4  0  0  0  0
 25 26  4  0  0  0  0
 26 27  1  0  0  0  0
 27 28  1  0  0  0  0
M  END
>  <Name_Molregno>
327300

>  <DOPAMINE D2>
6.5

>  <DOPAMINE D3>
7.07

>  <DOPAMINE D4>
7.12

$$$$
327307
  Marvin  02231216192D 0   1.00000     0.00000     0

 28 30  0  0  0  0  0  0  0  0999 V2000
   -7.8551   -0.1095    0.0000 Cl  0  0  0  0  0  0  0  0  0
   -7.8551   -0.9345    0.0000 C   0  0  0  0  0  0  0  0  0
   -7.1407   -1.3470    0.0000 C   0  0  0  0  0  0  0  0  0
   -6.4262   -0.9345    0.0000 N   0  0  0  0  0  0  0  0  0
   -6.4262   -0.1095    0.0000 C   0  0  0  0  0  0  0  0  0
   -5.7117    0.3030    0.0000 C   0  0  0  0  0  0  0  0  0
   -4.9972   -0.1095    0.0000 N   0  0  0  0  0  0  0  0  0
   -4.9972   -0.9345    0.0000 C   0  0  0  0  0  0  0  0  0
   -5.7117   -1.3470    0.0000 C   0  0  0  0  0  0  0  0  0
   -4.2828    0.3030    0.0000 C   0  0  0  0  0  0  0  0  0
   -3.5683   -0.1095    0.0000 C   0  0  0  0  0  0  0  0  0
   -2.8538    0.3030    0.0000 C   0  0  0  0  0  0  0  0  0
   -2.1394   -0.1095    0.0000 C   0  0  0  0  0  0  0  0  0
   -1.4249    0.3030    0.0000 N   0  0  0  0  0  0  0  0  0
   -0.7104   -0.1095    0.0000 C   0  0  0  0  0  0  0  0  0
   -0.7104   -0.9345    0.0000 O   0  0  0  0  0  0  0  0  0
    0.0041    0.3030    0.0000 C   0  0  0  0  0  0  0  0  0
    0.0041    1.1280    0.0000 N   0  0  0  0  0  0  0  0  0
    0.7185    1.5405    0.0000 C   0  0  0  0  0  0  0  0  0
    0.7185    2.3655    0.0000 F   0  0  0  0  0  0  0  0  0
    1.4330    1.1280    0.0000 C   0  0  0  0  0  0  0  0  0
    1.4330    0.3030    0.0000 C   0  0  0  0  0  0  0  0  0
    0.7185   -0.1095    0.0000 C   0  0  0  0  0  0  0  0  0
   -7.1407   -2.1720    0.0000 C   0  0  0  0  0  0  0  0  0
   -7.8551   -2.5845    0.0000 C   0  0  0  0  0  0  0  0  0
   -8.5696   -2.1720    0.0000 C   0  0  0  0  0  0  0  0  0
   -8.5696   -1.3470    0.0000 C   0  0  0  0  0  0  0  0  0
   -9.2841   -0.9345    0.0000 Cl  0  0  0  0  0  0  0  0  0
  1  2  1  0  0  0  0
  2  3  4  0  0  0  0
  2 27  4  0  0  0  0
  3  4  1  0  0  0  0
  3 24  4  0  0  0  0
  4  5  1  0  0  0  0
  4  9  1  0  0  0  0
  5  6  1  0  0  0  0
  6  7  1  0  0  0  0
  7  8  1  0  0  0  0
  7 10  1  0  0  0  0
  8  9  1  0  0  0  0
 10 11  1  0  0  0  0
 11 12  1  0  0  0  0
 12 13  1  0  0  0  0
 13 14  1  0  0  0  0
 14 15  1  0  0  0  0
 15 16  2  0  0  0  0
 15 17  1  0  0  0  0
 17 18  4  0  0  0  0
 17 23  4  0  0  0  0
 18 19  4  0  0  0  0
 19 20  1  0  0  0  0
 19 21  4  0  0  0  0
 21 22  4  0  0  0  0
 22 23  4  0  0  0  0
 24 25  4  0  0  0  0
 25 26  4  0  0  0  0
 26 27  4  0  0  0  0
 27 28  1  0  0  0  0
M  END
>  <Name_Molregno>
327307

>  <DOPAMINE D2>
7.3

>  <DOPAMINE D3>
8.05

>  <DOPAMINE D4>
7.01

$$$$
327308
  Marvin  02231216192D 0   1.00000     0.00000     0

 29 31  0  0  0  0  0  0  0  0999 V2000
   -0.0747   -1.1619    0.0000 S   0  0  0  0  0  0  0  0  0
    0.3378   -0.4474    0.0000 O   0  0  0  0  0  0  0  0  0
   -0.4872   -1.8764    0.0000 O   0  0  0  0  0  0  0  0  0
    0.6398   -1.5744    0.0000 N   0  0  0  0  0  0  0  0  0
    1.3543   -1.1619    0.0000 C   0  0  0  0  0  0  0  0  0
    2.0687   -1.5744    0.0000 C   0  0  0  0  0  0  0  0  0
    2.7832   -1.1619    0.0000 C   0  0  0  0  0  0  0  0  0
    3.4977   -1.5744    0.0000 C   0  0  0  0  0  0  0  0  0
    4.2122   -1.1619    0.0000 N   0  0  0  0  0  0  0  0  0
    4.2122   -0.3369    0.0000 C   0  0  0  0  0  0  0  0  0
    4.9266    0.0756    0.0000 C   0  0  0  0  0  0  0  0  0
    5.6411   -0.3369    0.0000 N   0  0  0  0  0  0  0  0  0
    5.6411   -1.1619    0.0000 C   0  0  0  0  0  0  0  0  0
    4.9266   -1.5744    0.0000 C   0  0  0  0  0  0  0  0  0
    6.3556    0.0756    0.0000 C   0  0  0  0  0  0  0  0  0
    6.3556    0.9006    0.0000 C   0  0  0  0  0  0  0  0  0
    7.0700    1.3131    0.0000 C   0  0  0  0  0  0  0  0  0
    7.7845    0.9006    0.0000 C   0  0  0  0  0  0  0  0  0
    7.7845    0.0756    0.0000 C   0  0  0  0  0  0  0  0  0
    7.0700   -0.3369    0.0000 C   0  0  0  0  0  0  0  0  0
    7.0700   -1.1619    0.0000 O   0  0  0  0  0  0  0  0  0
    7.7845   -1.5744    0.0000 C   0  0  0  0  0  0  0  0  0
   -0.7891   -0.7494    0.0000 C   0  0  0  0  0  0  0  0  0
   -1.5036   -1.1619    0.0000 C   0  0  0  0  0  0  0  0  0
   -2.2181   -0.7494    0.0000 C   0  0  0  0  0  0  0  0  0
   -2.2181    0.0756    0.0000 C   0  0  0  0  0  0  0  0  0
   -2.9325    0.4881    0.0000 F   0  0  0  0  0  0  0  0  0
   -1.5036    0.4881    0.0000 C   0  0  0  0  0  0  0  0  0
   -0.7891    0.0756    0.0000 C   0  0  0  0  0  0  0  0  0
  1  2  2  0  0  0  0
  1  3  2  0  0  0  0
  1  4  1  0  0  0  0
  1 23  1  0  0  0  0
  4  5  1  0  0  0  0
  5  6  1  0  0  0  0
  6  7  1  0  0  0  0
  7  8  1  0  0  0  0
  8  9  1  0  0  0  0
  9 10  1  0  0  0  0
  9 14  1  0  0  0  0
 10 11  1  0  0  0  0
 11 12  1  0  0  0  0
 12 13  1  0  0  0  0
 12 15  1  0  0  0  0
 13 14  1  0  0  0  0
 15 16  4  0  0  0  0
 15 20  4  0  0  0  0
 16 17  4  0  0  0  0
 17 18  4  0  0  0  0
 18 19  4  0  0  0  0
 19 20  4  0  0  0  0
 20 21  1  0  0  0  0
 21 22  1  0  0  0  0
 23 24  4  0  0  0  0
 23 29  4  0  0  0  0
 24 25  4  0  0  0  0
 25 26  4  0  0  0  0
 26 27  1  0  0  0  0
 26 28  4  0  0  0  0
 28 29  4  0  0  0  0
M  END
>  <Name_Molregno>
327308

>  <DOPAMINE D2>
7.03

>  <DOPAMINE D3>
6.68

>  <DOPAMINE D4>
8

$$$$
327319
  Marvin  02231216192D 0   1.00000     0.00000     0

 29 31  0  0  0  0  0  0  0  0999 V2000
   -0.1099   -0.0032    0.0000 Cl  0  0  0  0  0  0  0  0  0
   -0.1099   -0.8282    0.0000 C   0  0  0  0  0  0  0  0  0
    0.6045   -1.2407    0.0000 C   0  0  0  0  0  0  0  0  0
    1.3190   -0.8282    0.0000 N   0  0  0  0  0  0  0  0  0
    1.3190   -0.0032    0.0000 C   0  0  0  0  0  0  0  0  0
    2.0335    0.4093    0.0000 C   0  0  0  0  0  0  0  0  0
    2.7479   -0.0032    0.0000 N   0  0  0  0  0  0  0  0  0
    2.7479   -0.8282    0.0000 C   0  0  0  0  0  0  0  0  0
    2.0335   -1.2407    0.0000 C   0  0  0  0  0  0  0  0  0
    3.4624    0.4093    0.0000 C   0  0  0  0  0  0  0  0  0
    4.1769   -0.0032    0.0000 C   0  0  0  0  0  0  0  0  0
    4.8914    0.4093    0.0000 C   0  0  0  0  0  0  0  0  0
    5.6058   -0.0032    0.0000 C   0  0  0  0  0  0  0  0  0
    6.3203    0.4093    0.0000 N   0  0  0  0  0  0  0  0  0
    7.0348   -0.0032    0.0000 S   0  0  0  0  0  0  0  0  0
    7.4473    0.7113    0.0000 O   0  0  0  0  0  0  0  0  0
    6.6223   -0.7176    0.0000 O   0  0  0  0  0  0  0  0  0
    7.7492   -0.4157    0.0000 C   0  0  0  0  0  0  0  0  0
    8.4637   -0.0032    0.0000 C   0  0  0  0  0  0  0  0  0
    9.1782   -0.4157    0.0000 C   0  0  0  0  0  0  0  0  0
    9.1782   -1.2407    0.0000 C   0  0  0  0  0  0  0  0  0
    9.8927   -1.6532    0.0000 F   0  0  0  0  0  0  0  0  0
    8.4637   -1.6532    0.0000 C   0  0  0  0  0  0  0  0  0
    7.7492   -1.2407    0.0000 C   0  0  0  0  0  0  0  0  0
    0.6045   -2.0657    0.0000 C   0  0  0  0  0  0  0  0  0
   -0.1099   -2.4782    0.0000 C   0  0  0  0  0  0  0  0  0
   -0.8244   -2.0657    0.0000 C   0  0  0  0  0  0  0  0  0
   -0.8244   -1.2407    0.0000 C   0  0  0  0  0  0  0  0  0
   -1.5389   -0.8282    0.0000 Cl  0  0  0  0  0  0  0  0  0
  1  2  1  0  0  0  0
  2  3  4  0  0  0  0
  2 28  4  0  0  0  0
  3  4  1  0  0  0  0
  3 25  4  0  0  0  0
  4  5  1  0  0  0  0
  4  9  1  0  0  0  0
  5  6  1  0  0  0  0
  6  7  1  0  0  0  0
  7  8  1  0  0  0  0
  7 10  1  0  0  0  0
  8  9  1  0  0  0  0
 10 11  1  0  0  0  0
 11 12  1  0  0  0  0
 12 13  1  0  0  0  0
 13 14  1  0  0  0  0
 14 15  1  0  0  0  0
 15 16  2  0  0  0  0
 15 17  2  0  0  0  0
 15 18  1  0  0  0  0
 18 19  4  0  0  0  0
 18 24  4  0  0  0  0
 19 20  4  0  0  0  0
 20 21  4  0  0  0  0
 21 22  1  0  0  0  0
 21 23  4  0  0  0  0
 23 24  4  0  0  0  0
 25 26  4  0  0  0  0
 26 27  4  0  0  0  0
 27 28  4  0  0  0  0
 28 29  1  0  0  0  0
M  END
>  <Name_Molregno>
327319

>  <DOPAMINE D2>
7.36

>  <DOPAMINE D3>
7.8

>  <DOPAMINE D4>
7.77

$$$$
328679
  Marvin  02231216192D 0   1.00000     0.00000     0

 16 17  0  0  1  0  0  0  0  0999 V2000
    1.8003   -1.5256    0.0000 N   0  0  0  0  0  0  0  0  0
    1.6288   -2.3326    0.0000 N   0  0  0  0  0  0  0  0  0
    0.8083   -2.4188    0.0000 C   0  0  0  0  0  0  0  0  0
    0.4727   -1.6651    0.0000 C   0  0  0  0  0  0  0  0  0
    1.0858   -1.1131    0.0000 C   0  0  0  0  0  0  0  0  0
    1.0858   -0.2881    0.0000 C   0  0  0  0  0  0  0  0  0
    1.8003    0.1244    0.0000 C   0  0  0  0  0  0  0  0  0
    1.8003    0.9494    0.0000 N   0  0  0  0  0  0  0  0  0
    1.0858    1.3619    0.0000 C   0  0  0  0  0  0  0  0  0
    1.0858    2.1869    0.0000 C   0  0  0  0  0  0  0  0  0
    0.3714    2.5994    0.0000 C   0  0  0  0  0  0  0  0  0
    2.5148    1.3619    0.0000 C   0  0  0  0  0  0  0  0  0
    2.5148    2.1869    0.0000 C   0  0  0  0  0  0  0  0  0
    3.2292    2.5994    0.0000 C   0  0  0  0  0  0  0  0  0
    2.5148   -0.2881    0.0000 C   0  0  0  0  0  0  0  0  0
    2.5148   -1.1131    0.0000 C   0  0  0  0  0  0  0  0  0
  1  2  4  0  0  0  0
  1  5  4  0  0  0  0
  1 16  1  0  0  0  0
  2  3  4  0  0  0  0
  3  4  4  0  0  0  0
  4  5  4  0  0  0  0
  5  6  1  0  0  0  0
  6  7  1  0  0  0  0
  7  8  1  0  0  0  0
  7 15  1  0  0  0  0
  8  9  1  0  0  0  0
  8 12  1  0  0  0  0
  9 10  1  0  0  0  0
 10 11  1  0  0  0  0
 12 13  1  0  0  0  0
 13 14  1  0  0  0  0
 15 16  1  0  0  0  0
M  END
>  <Name_Molregno>
328679

>  <DOPAMINE D2>
5.58

>  <DOPAMINE D3>
7.31

>  <DOPAMINE D4>
6.19

$$$$
328687
  Marvin  02231216192D 0   1.00000     0.00000     0

 17 18  0  0  1  0  0  0  0  0999 V2000
    0.5727   -3.5443    0.0000 Cl  0  0  0  0  0  0  0  0  0
   -0.2343   -3.7158    0.0000 C   0  0  0  0  0  0  0  0  0
   -0.8474   -3.1638    0.0000 C   0  0  0  0  0  0  0  0  0
   -1.5618   -3.5763    0.0000 N   0  0  0  0  0  0  0  0  0
   -1.3903   -4.3832    0.0000 N   0  0  0  0  0  0  0  0  0
   -0.5698   -4.4695    0.0000 C   0  0  0  0  0  0  0  0  0
   -2.2763   -3.1638    0.0000 C   0  0  0  0  0  0  0  0  0
   -2.2763   -2.3388    0.0000 C   0  0  0  0  0  0  0  0  0
   -1.5618   -1.9263    0.0000 C   0  0  0  0  0  0  0  0  0
   -1.5618   -1.1013    0.0000 N   0  0  0  0  0  0  0  0  0
   -2.2763   -0.6888    0.0000 C   0  0  0  0  0  0  0  0  0
   -2.2763    0.1362    0.0000 C   0  0  0  0  0  0  0  0  0
   -2.9908    0.5487    0.0000 C   0  0  0  0  0  0  0  0  0
   -0.8474   -0.6888    0.0000 C   0  0  0  0  0  0  0  0  0
   -0.8474    0.1362    0.0000 C   0  0  0  0  0  0  0  0  0
   -0.1329    0.5487    0.0000 C   0  0  0  0  0  0  0  0  0
   -0.8474   -2.3388    0.0000 C   0  0  0  0  0  0  0  0  0
  1  2  1  0  0  0  0
  2  3  4  0  0  0  0
  2  6  4  0  0  0  0
  3  4  4  0  0  0  0
  3 17  1  0  0  0  0
  4  5  4  0  0  0  0
  4  7  1  0  0  0  0
  5  6  4  0  0  0  0
  7  8  1  0  0  0  0
  8  9  1  0  0  0  0
  9 10  1  0  0  0  0
  9 17  1  0  0  0  0
 10 11  1  0  0  0  0
 10 14  1  0  0  0  0
 11 12  1  0  0  0  0
 12 13  1  0  0  0  0
 14 15  1  0  0  0  0
 15 16  1  0  0  0  0
M  END
>  <Name_Molregno>
328687

>  <DOPAMINE D2>
5.8

>  <DOPAMINE D3>
7.42

>  <DOPAMINE D4>
5.94

$$$$
328688
  Marvin  02231216192D 0   1.00000     0.00000     0

 17 18  0  0  1  0  0  0  0  0999 V2000
    0.0822   -1.6095    0.0000 O   0  0  0  0  0  0  0  0  0
    0.8892   -1.4380    0.0000 C   0  0  0  0  0  0  0  0  0
    1.4412   -2.0511    0.0000 O   0  0  0  0  0  0  0  0  0
    1.1441   -0.6534    0.0000 C   0  0  0  0  0  0  0  0  0
    1.9288   -0.3985    0.0000 C   0  0  0  0  0  0  0  0  0
    1.9288    0.4265    0.0000 N   0  0  0  0  0  0  0  0  0
    1.1441    0.6815    0.0000 N   0  0  0  0  0  0  0  0  0
    0.6592    0.0140    0.0000 C   0  0  0  0  0  0  0  0  0
    2.6432    0.8390    0.0000 C   0  0  0  0  0  0  0  0  0
    3.3577    0.4265    0.0000 C   0  0  0  0  0  0  0  0  0
    3.3577   -0.3985    0.0000 C   0  0  0  0  0  0  0  0  0
    4.0722   -0.8110    0.0000 N   0  0  0  0  0  0  0  0  0
    4.7866   -0.3985    0.0000 C   0  0  0  0  0  0  0  0  0
    5.5011   -0.8110    0.0000 C   0  0  0  0  0  0  0  0  0
    6.2156   -0.3985    0.0000 C   0  0  0  0  0  0  0  0  0
    2.6432   -0.8110    0.0000 C   0  0  0  0  0  0  0  0  0
   -0.1727   -2.3942    0.0000 C   0  0  0  0  0  0  0  0  0
  1  2  1  0  0  0  0
  1 17  1  0  0  0  0
  2  3  2  0  0  0  0
  2  4  1  0  0  0  0
  4  5  4  0  0  0  0
  4  8  4  0  0  0  0
  5  6  4  0  0  0  0
  5 16  1  0  0  0  0
  6  7  4  0  0  0  0
  6  9  1  0  0  0  0
  7  8  4  0  0  0  0
  9 10  1  0  0  0  0
 10 11  1  0  0  0  0
 11 12  1  0  0  0  0
 11 16  1  0  0  0  0
 12 13  1  0  0  0  0
 13 14  1  0  0  0  0
 14 15  1  0  0  0  0
M  END
>  <Name_Molregno>
328688

>  <DOPAMINE D2>
4

>  <DOPAMINE D3>
4.92

>  <DOPAMINE D4>
4.05

$$$$
328696
  Marvin  02231216192D 0   1.00000     0.00000     0

 20 21  0  0  1  0  0  0  0  0999 V2000
    4.7372   -2.1894    0.0000 O   0  0  0  0  0  0  0  0  0
    4.1852   -1.5763    0.0000 C   0  0  0  0  0  0  0  0  0
    4.4401   -0.7917    0.0000 O   0  0  0  0  0  0  0  0  0
    3.3782   -1.7478    0.0000 C   0  0  0  0  0  0  0  0  0
    2.7651   -1.1958    0.0000 C   0  0  0  0  0  0  0  0  0
    2.0506   -1.6083    0.0000 N   0  0  0  0  0  0  0  0  0
    2.2222   -2.4153    0.0000 N   0  0  0  0  0  0  0  0  0
    3.0426   -2.5015    0.0000 C   0  0  0  0  0  0  0  0  0
    1.3362   -1.1958    0.0000 C   0  0  0  0  0  0  0  0  0
    1.3362   -0.3708    0.0000 C   0  0  0  0  0  0  0  0  0
    2.0506    0.0417    0.0000 C   0  0  0  0  0  0  0  0  0
    2.0506    0.8667    0.0000 N   0  0  0  0  0  0  0  0  0
    1.3362    1.2792    0.0000 C   0  0  0  0  0  0  0  0  0
    1.3362    2.1042    0.0000 C   0  0  0  0  0  0  0  0  0
    0.6217    2.5167    0.0000 C   0  0  0  0  0  0  0  0  0
    2.7651    1.2792    0.0000 C   0  0  0  0  0  0  0  0  0
    2.7651    2.1042    0.0000 C   0  0  0  0  0  0  0  0  0
    3.4796    2.5167    0.0000 C   0  0  0  0  0  0  0  0  0
    2.7651   -0.3708    0.0000 C   0  0  0  0  0  0  0  0  0
    5.5442   -2.0179    0.0000 C   0  0  0  0  0  0  0  0  0
  1  2  1  0  0  0  0
  1 20  1  0  0  0  0
  2  3  2  0  0  0  0
  2  4  1  0  0  0  0
  4  5  4  0  0  0  0
  4  8  4  0  0  0  0
  5  6  4  0  0  0  0
  5 19  1  0  0  0  0
  6  7  4  0  0  0  0
  6  9  1  0  0  0  0
  7  8  4  0  0  0  0
  9 10  1  0  0  0  0
 10 11  1  0  0  0  0
 11 12  1  0  0  0  0
 11 19  1  0  0  0  0
 12 13  1  0  0  0  0
 12 16  1  0  0  0  0
 13 14  1  0  0  0  0
 14 15  1  0  0  0  0
 16 17  1  0  0  0  0
 17 18  1  0  0  0  0
M  END
>  <Name_Molregno>
328696

>  <DOPAMINE D2>
4.7

>  <DOPAMINE D3>
4.77

>  <DOPAMINE D4>
4.7

$$$$
328697
  Marvin  02231216192D 0   1.00000     0.00000     0

 18 19  0  0  1  0  0  0  0  0999 V2000
    5.2485   -2.3992    0.0000 O   0  0  0  0  0  0  0  0  0
    4.6965   -1.7861    0.0000 C   0  0  0  0  0  0  0  0  0
    3.8895   -1.9576    0.0000 C   0  0  0  0  0  0  0  0  0
    3.2764   -1.4056    0.0000 C   0  0  0  0  0  0  0  0  0
    2.5619   -1.8181    0.0000 N   0  0  0  0  0  0  0  0  0
    2.7334   -2.6251    0.0000 N   0  0  0  0  0  0  0  0  0
    3.5539   -2.7113    0.0000 C   0  0  0  0  0  0  0  0  0
    1.8475   -1.4056    0.0000 C   0  0  0  0  0  0  0  0  0
    1.8475   -0.5806    0.0000 C   0  0  0  0  0  0  0  0  0
    2.5619   -0.1681    0.0000 C   0  0  0  0  0  0  0  0  0
    2.5619    0.6569    0.0000 N   0  0  0  0  0  0  0  0  0
    1.8475    1.0694    0.0000 C   0  0  0  0  0  0  0  0  0
    1.8475    1.8944    0.0000 C   0  0  0  0  0  0  0  0  0
    1.1330    2.3069    0.0000 C   0  0  0  0  0  0  0  0  0
    3.2764    1.0694    0.0000 C   0  0  0  0  0  0  0  0  0
    3.2764    1.8944    0.0000 C   0  0  0  0  0  0  0  0  0
    3.9909    2.3069    0.0000 C   0  0  0  0  0  0  0  0  0
    3.2764   -0.5806    0.0000 C   0  0  0  0  0  0  0  0  0
  1  2  1  0  0  0  0
  2  3  1  0  0  0  0
  3  4  4  0  0  0  0
  3  7  4  0  0  0  0
  4  5  4  0  0  0  0
  4 18  1  0  0  0  0
  5  6  4  0  0  0  0
  5  8  1  0  0  0  0
  6  7  4  0  0  0  0
  8  9  1  0  0  0  0
  9 10  1  0  0  0  0
 10 11  1  0  0  0  0
 10 18  1  0  0  0  0
 11 12  1  0  0  0  0
 11 15  1  0  0  0  0
 12 13  1  0  0  0  0
 13 14  1  0  0  0  0
 15 16  1  0  0  0  0
 16 17  1  0  0  0  0
M  END
>  <Name_Molregno>
328697

>  <DOPAMINE D2>
4.7

>  <DOPAMINE D3>
5.4

>  <DOPAMINE D4>
4.8

$$$$
328698
  Marvin  02231216192D 0   1.00000     0.00000     0

 18 19  0  0  1  0  0  0  0  0999 V2000
    5.2485   -2.3992    0.0000 O   0  0  0  0  0  0  0  0  0
    4.6965   -1.7861    0.0000 C   0  0  0  0  0  0  0  0  0
    3.8895   -1.9576    0.0000 C   0  0  0  0  0  0  0  0  0
    3.2764   -1.4056    0.0000 C   0  0  0  0  0  0  0  0  0
    2.5619   -1.8181    0.0000 N   0  0  0  0  0  0  0  0  0
    2.7334   -2.6251    0.0000 N   0  0  0  0  0  0  0  0  0
    3.5539   -2.7113    0.0000 C   0  0  0  0  0  0  0  0  0
    1.8475   -1.4056    0.0000 C   0  0  0  0  0  0  0  0  0
    1.8475   -0.5806    0.0000 C   0  0  0  0  0  0  0  0  0
    2.5619   -0.1681    0.0000 C   0  0  0  0  0  0  0  0  0
    2.5619    0.6569    0.0000 N   0  0  0  0  0  0  0  0  0
    1.8475    1.0694    0.0000 C   0  0  0  0  0  0  0  0  0
    1.8475    1.8944    0.0000 C   0  0  0  0  0  0  0  0  0
    1.1330    2.3069    0.0000 C   0  0  0  0  0  0  0  0  0
    3.2764    1.0694    0.0000 C   0  0  0  0  0  0  0  0  0
    3.2764    1.8944    0.0000 C   0  0  0  0  0  0  0  0  0
    3.9909    2.3069    0.0000 C   0  0  0  0  0  0  0  0  0
    3.2764   -0.5806    0.0000 C   0  0  0  0  0  0  0  0  0
  1  2  2  0  0  0  0
  2  3  1  0  0  0  0
  3  4  4  0  0  0  0
  3  7  4  0  0  0  0
  4  5  4  0  0  0  0
  4 18  1  0  0  0  0
  5  6  4  0  0  0  0
  5  8  1  0  0  0  0
  6  7  4  0  0  0  0
  8  9  1  0  0  0  0
  9 10  1  0  0  0  0
 10 11  1  0  0  0  0
 10 18  1  0  0  0  0
 11 12  1  0  0  0  0
 11 15  1  0  0  0  0
 12 13  1  0  0  0  0
 13 14  1  0  0  0  0
 15 16  1  0  0  0  0
 16 17  1  0  0  0  0
M  END
>  <Name_Molregno>
328698

>  <DOPAMINE D2>
5.32

>  <DOPAMINE D3>
4.92

>  <DOPAMINE D4>
4.85

$$$$
330283
  Marvin  02231216192D 0   1.00000     0.00000     0

 31 34  0  0  0  0  0  0  0  0999 V2000
    0.1076    0.0239    0.0000 Cl  0  0  0  0  0  0  0  0  0
    0.1076   -0.8011    0.0000 C   0  0  0  0  0  0  0  0  0
    0.8221   -1.2136    0.0000 C   0  0  0  0  0  0  0  0  0
    0.8221   -2.0386    0.0000 C   0  0  0  0  0  0  0  0  0
    0.1076   -2.4511    0.0000 C   0  0  0  0  0  0  0  0  0
   -0.6069   -2.0386    0.0000 C   0  0  0  0  0  0  0  0  0
   -0.6069   -1.2136    0.0000 C   0  0  0  0  0  0  0  0  0
   -1.3213   -0.8011    0.0000 N   0  0  0  0  0  0  0  0  0
   -2.0358   -1.2136    0.0000 C   0  0  0  0  0  0  0  0  0
   -2.7503   -0.8011    0.0000 C   0  0  0  0  0  0  0  0  0
   -2.7503    0.0239    0.0000 N   0  0  0  0  0  0  0  0  0
   -2.0358    0.4364    0.0000 C   0  0  0  0  0  0  0  0  0
   -1.3213    0.0239    0.0000 C   0  0  0  0  0  0  0  0  0
   -3.4647    0.4364    0.0000 C   0  0  0  0  0  0  0  0  0
   -3.4647    1.2614    0.0000 O   0  0  0  0  0  0  0  0  0
   -4.1792    0.0239    0.0000 N   0  0  0  0  0  0  0  0  0
   -4.8937    0.4364    0.0000 C   0  0  0  0  0  0  0  0  0
   -5.6082    0.0239    0.0000 C   0  0  0  0  0  0  0  0  0
   -6.3226    0.4364    0.0000 C   0  0  0  0  0  0  0  0  0
   -7.0371    0.0239    0.0000 N   0  0  0  0  0  0  0  0  0
   -7.0371   -0.8011    0.0000 C   0  0  0  0  0  0  0  0  0
   -7.7516   -1.2136    0.0000 C   0  0  0  0  0  0  0  0  0
   -8.4660   -0.8011    0.0000 N   0  0  0  0  0  0  0  0  0
   -8.4660    0.0239    0.0000 C   0  0  0  0  0  0  0  0  0
   -7.7516    0.4364    0.0000 C   0  0  0  0  0  0  0  0  0
   -9.1805   -1.2136    0.0000 C   0  0  0  0  0  0  0  0  0
   -6.3226    1.2614    0.0000 C   0  0  0  0  0  0  0  0  0
   -7.0371    1.6739    0.0000 O   0  0  0  0  0  0  0  0  0
   -7.0371    2.4989    0.0000 C   0  0  0  0  0  0  0  0  0
   -5.6082    1.6739    0.0000 C   0  0  0  0  0  0  0  0  0
   -4.8937    1.2614    0.0000 C   0  0  0  0  0  0  0  0  0
  1  2  1  0  0  0  0
  2  3  4  0  0  0  0
  2  7  4  0  0  0  0
  3  4  4  0  0  0  0
  4  5  4  0  0  0  0
  5  6  4  0  0  0  0
  6  7  4  0  0  0  0
  7  8  1  0  0  0  0
  8  9  1  0  0  0  0
  8 13  1  0  0  0  0
  9 10  1  0  0  0  0
 10 11  1  0  0  0  0
 11 12  1  0  0  0  0
 11 14  1  0  0  0  0
 12 13  1  0  0  0  0
 14 15  2  0  0  0  0
 14 16  1  0  0  0  0
 16 17  1  0  0  0  0
 17 18  4  0  0  0  0
 17 31  4  0  0  0  0
 18 19  4  0  0  0  0
 19 20  1  0  0  0  0
 19 27  4  0  0  0  0
 20 21  1  0  0  0  0
 20 25  1  0  0  0  0
 21 22  1  0  0  0  0
 22 23  1  0  0  0  0
 23 24  1  0  0  0  0
 23 26  1  0  0  0  0
 24 25  1  0  0  0  0
 27 28  1  0  0  0  0
 27 30  4  0  0  0  0
 28 29  1  0  0  0  0
 30 31  4  0  0  0  0
M  END
>  <Name_Molregno>
330283

>  <5-HT1A>
6.47

>  <5-HT1B>
7.95

>  <5-HT1D>
7.46

>  <5-HT2A>
5.22

>  <5-HT2C>
5.91

>  <5-HT6>
6.33

>  <5-HT7>
6.47

>  <DOPAMINE D1>
5

>  <DOPAMINE D2>
5

>  <DOPAMINE D3>
5

>  <DOPAMINE D4>
5

>  <DOPAMINE D5>
5

>  <HISTAMINE H1>
5

>  <Muscarinic acetylcholine receptor M1>
5

>  <Muscarinic acetylcholine receptor M2>
5

>  <Muscarinic acetylcholine receptor M3>
5

>  <Muscarinic acetylcholine receptor M4>
5

>  <Muscarinic acetylcholine receptor M5>
5

$$$$
330287
  Marvin  02231216192D 0   1.00000     0.00000     0

 31 34  0  0  0  0  0  0  0  0999 V2000
    0.1076    0.0239    0.0000 F   0  0  0  0  0  0  0  0  0
    0.1076   -0.8011    0.0000 C   0  0  0  0  0  0  0  0  0
    0.8221   -1.2136    0.0000 C   0  0  0  0  0  0  0  0  0
    0.8221   -2.0386    0.0000 C   0  0  0  0  0  0  0  0  0
    0.1076   -2.4511    0.0000 C   0  0  0  0  0  0  0  0  0
   -0.6069   -2.0386    0.0000 C   0  0  0  0  0  0  0  0  0
   -0.6069   -1.2136    0.0000 C   0  0  0  0  0  0  0  0  0
   -1.3213   -0.8011    0.0000 N   0  0  0  0  0  0  0  0  0
   -2.0358   -1.2136    0.0000 C   0  0  0  0  0  0  0  0  0
   -2.7503   -0.8011    0.0000 C   0  0  0  0  0  0  0  0  0
   -2.7503    0.0239    0.0000 N   0  0  0  0  0  0  0  0  0
   -2.0358    0.4364    0.0000 C   0  0  0  0  0  0  0  0  0
   -1.3213    0.0239    0.0000 C   0  0  0  0  0  0  0  0  0
   -3.4647    0.4364    0.0000 C   0  0  0  0  0  0  0  0  0
   -3.4647    1.2614    0.0000 O   0  0  0  0  0  0  0  0  0
   -4.1792    0.0239    0.0000 N   0  0  0  0  0  0  0  0  0
   -4.8937    0.4364    0.0000 C   0  0  0  0  0  0  0  0  0
   -5.6082    0.0239    0.0000 C   0  0  0  0  0  0  0  0  0
   -6.3226    0.4364    0.0000 C   0  0  0  0  0  0  0  0  0
   -7.0371    0.0239    0.0000 N   0  0  0  0  0  0  0  0  0
   -7.0371   -0.8011    0.0000 C   0  0  0  0  0  0  0  0  0
   -7.7516   -1.2136    0.0000 C   0  0  0  0  0  0  0  0  0
   -8.4660   -0.8011    0.0000 N   0  0  0  0  0  0  0  0  0
   -8.4660    0.0239    0.0000 C   0  0  0  0  0  0  0  0  0
   -7.7516    0.4364    0.0000 C   0  0  0  0  0  0  0  0  0
   -9.1805   -1.2136    0.0000 C   0  0  0  0  0  0  0  0  0
   -6.3226    1.2614    0.0000 C   0  0  0  0  0  0  0  0  0
   -7.0371    1.6739    0.0000 O   0  0  0  0  0  0  0  0  0
   -7.0371    2.4989    0.0000 C   0  0  0  0  0  0  0  0  0
   -5.6082    1.6739    0.0000 C   0  0  0  0  0  0  0  0  0
   -4.8937    1.2614    0.0000 C   0  0  0  0  0  0  0  0  0
  1  2  1  0  0  0  0
  2  3  4  0  0  0  0
  2  7  4  0  0  0  0
  3  4  4  0  0  0  0
  4  5  4  0  0  0  0
  5  6  4  0  0  0  0
  6  7  4  0  0  0  0
  7  8  1  0  0  0  0
  8  9  1  0  0  0  0
  8 13  1  0  0  0  0
  9 10  1  0  0  0  0
 10 11  1  0  0  0  0
 11 12  1  0  0  0  0
 11 14  1  0  0  0  0
 12 13  1  0  0  0  0
 14 15  2  0  0  0  0
 14 16  1  0  0  0  0
 16 17  1  0  0  0  0
 17 18  4  0  0  0  0
 17 31  4  0  0  0  0
 18 19  4  0  0  0  0
 19 20  1  0  0  0  0
 19 27  4  0  0  0  0
 20 21  1  0  0  0  0
 20 25  1  0  0  0  0
 21 22  1  0  0  0  0
 22 23  1  0  0  0  0
 23 24  1  0  0  0  0
 23 26  1  0  0  0  0
 24 25  1  0  0  0  0
 27 28  1  0  0  0  0
 27 30  4  0  0  0  0
 28 29  1  0  0  0  0
 30 31  4  0  0  0  0
M  END
>  <Name_Molregno>
330287

>  <5-HT1A>
6.5

>  <5-HT1B>
7.74

>  <5-HT1D>
6.99

>  <5-HT2A>
5

>  <5-HT2C>
5.97

>  <5-HT6>
6.08

>  <5-HT7>
5

>  <DOPAMINE D1>
5

>  <DOPAMINE D2>
5

>  <DOPAMINE D3>
5

>  <DOPAMINE D4>
5

>  <DOPAMINE D5>
5

>  <HISTAMINE H1>
5

>  <Muscarinic acetylcholine receptor M1>
5

>  <Muscarinic acetylcholine receptor M2>
5

>  <Muscarinic acetylcholine receptor M3>
5

>  <Muscarinic acetylcholine receptor M4>
5

>  <Muscarinic acetylcholine receptor M5>
5

$$$$
331559
  Marvin  02231216192D 0   1.00000     0.00000     0

 34 38  0  0  0  0  0  0  0  0999 V2000
   -9.0296   -2.3369    0.0000 O   0  0  0  0  0  0  0  0  0
   -9.0296   -3.1619    0.0000 C   0  0  0  0  0  0  0  0  0
   -9.7441   -1.9244    0.0000 C   0  0  0  0  0  0  0  0  0
  -10.4586   -2.3369    0.0000 C   0  0  0  0  0  0  0  0  0
  -11.1730   -1.9244    0.0000 C   0  0  0  0  0  0  0  0  0
  -11.1730   -1.0994    0.0000 C   0  0  0  0  0  0  0  0  0
  -10.4586   -0.6869    0.0000 C   0  0  0  0  0  0  0  0  0
   -9.7441   -1.0994    0.0000 C   0  0  0  0  0  0  0  0  0
   -9.0296   -0.6869    0.0000 N   0  0  0  0  0  0  0  0  0
   -9.0296    0.1381    0.0000 C   0  0  0  0  0  0  0  0  0
   -8.3151    0.5506    0.0000 C   0  0  0  0  0  0  0  0  0
   -7.6007    0.1381    0.0000 N   0  0  0  0  0  0  0  0  0
   -7.6007   -0.6869    0.0000 C   0  0  0  0  0  0  0  0  0
   -8.3151   -1.0994    0.0000 C   0  0  0  0  0  0  0  0  0
   -6.8862    0.5506    0.0000 C   0  0  0  0  0  0  0  0  0
   -6.1717    0.1381    0.0000 C   0  0  0  0  0  0  0  0  0
   -5.4573    0.5506    0.0000 C   0  0  0  0  0  0  0  0  0
   -4.7428    0.1381    0.0000 C   0  0  0  0  0  0  0  0  0
   -4.0283    0.5506    0.0000 N   0  0  0  0  0  0  0  0  0
   -3.3138    0.1381    0.0000 C   0  0  0  0  0  0  0  0  0
   -3.3138   -0.6869    0.0000 O   0  0  0  0  0  0  0  0  0
   -2.5994    0.5506    0.0000 C   0  0  0  0  0  0  0  0  0
   -1.8849    0.1381    0.0000 C   0  0  0  0  0  0  0  0  0
   -1.1704    0.5506    0.0000 C   0  0  0  0  0  0  0  0  0
   -0.3858    0.2956    0.0000 C   0  0  0  0  0  0  0  0  0
    0.0991    0.9631    0.0000 C   0  0  0  0  0  0  0  0  0
   -0.3858    1.6305    0.0000 C   0  0  0  0  0  0  0  0  0
   -1.1704    1.3756    0.0000 C   0  0  0  0  0  0  0  0  0
   -1.8849    1.7881    0.0000 C   0  0  0  0  0  0  0  0  0
   -2.5994    1.3756    0.0000 C   0  0  0  0  0  0  0  0  0
   -0.0503    2.3842    0.0000 C   0  0  0  0  0  0  0  0  0
    0.7702    2.4704    0.0000 C   0  0  0  0  0  0  0  0  0
    1.2551    1.8030    0.0000 C   0  0  0  0  0  0  0  0  0
    0.9196    1.0493    0.0000 C   0  0  0  0  0  0  0  0  0
  1  2  1  0  0  0  0
  1  3  1  0  0  0  0
  3  4  4  0  0  0  0
  3  8  4  0  0  0  0
  4  5  4  0  0  0  0
  5  6  4  0  0  0  0
  6  7  4  0  0  0  0
  7  8  4  0  0  0  0
  8  9  1  0  0  0  0
  9 10  1  0  0  0  0
  9 14  1  0  0  0  0
 10 11  1  0  0  0  0
 11 12  1  0  0  0  0
 12 13  1  0  0  0  0
 12 15  1  0  0  0  0
 13 14  1  0  0  0  0
 15 16  1  0  0  0  0
 16 17  1  0  0  0  0
 17 18  1  0  0  0  0
 18 19  1  0  0  0  0
 19 20  1  0  0  0  0
 20 21  2  0  0  0  0
 20 22  1  0  0  0  0
 22 23  4  0  0  0  0
 22 30  4  0  0  0  0
 23 24  4  0  0  0  0
 24 25  1  0  0  0  0
 24 28  4  0  0  0  0
 25 26  1  0  0  0  0
 26 27  4  0  0  0  0
 26 34  4  0  0  0  0
 27 28  1  0  0  0  0
 27 31  4  0  0  0  0
 28 29  4  0  0  0  0
 29 30  4  0  0  0  0
 31 32  4  0  0  0  0
 32 33  4  0  0  0  0
 33 34  4  0  0  0  0
M  END
>  <Name_Molregno>
331559

>  <5-HT1A>
7.47

>  <5-HT2A>
6.81

>  <5-HT2C>
6.49

>  <DOPAMINE D2>
7.26

>  <DOPAMINE D3>
9.4

>  <DOPAMINE D4>
6.37

$$$$
333104
  Marvin  02231216192D 0   1.00000     0.00000     0

 27 30  0  0  1  0  0  0  0  0999 V2000
    3.9419   -4.1600    0.0000 S   0  0  0  0  0  0  0  0  0
    3.6870   -4.9446    0.0000 C   0  0  0  0  0  0  0  0  0
    2.8620   -4.9446    0.0000 C   0  0  0  0  0  0  0  0  0
    2.6070   -4.1600    0.0000 C   0  0  0  0  0  0  0  0  0
    3.2745   -3.6750    0.0000 C   0  0  0  0  0  0  0  0  0
    3.2745   -2.8500    0.0000 C   0  0  0  0  0  0  0  0  0
    2.5600   -2.4375    0.0000 C   0  0  0  0  0  0  0  0  0
    2.5600   -1.6125    0.0000 C   0  0  0  0  0  0  0  0  0
    3.2745   -1.2000    0.0000 C   0  0  0  0  0  0  0  0  0
    3.9889   -1.6125    0.0000 C   0  0  0  0  0  0  0  0  0
    3.9889   -2.4375    0.0000 C   0  0  0  0  0  0  0  0  0
    3.2745   -0.3750    0.0000 C   0  0  0  0  0  0  0  0  0
    2.5600    0.0375    0.0000 O   0  0  0  0  0  0  0  0  0
    3.9889    0.0375    0.0000 N   0  0  0  0  0  0  0  0  0
    3.9889    0.8625    0.0000 C   0  0  0  0  0  0  0  0  0
    3.3215    1.3474    0.0000 C   0  0  0  0  0  0  0  0  0
    3.5764    2.1320    0.0000 C   0  0  0  0  0  0  0  0  0
    4.4014    2.1320    0.0000 N   0  0  0  0  0  0  0  0  0
    4.6564    1.3474    0.0000 C   0  0  0  0  0  0  0  0  0
    4.8864    2.7994    0.0000 C   0  0  0  0  0  0  0  0  0
    5.7068    2.7132    0.0000 C   0  0  0  0  0  0  0  0  0
    6.1918    3.3806    0.0000 C   0  0  0  0  0  0  0  0  0
    7.0122    3.2944    0.0000 C   0  0  0  0  0  0  0  0  0
    7.3478    2.5407    0.0000 C   0  0  0  0  0  0  0  0  0
    6.8629    1.8733    0.0000 C   0  0  0  0  0  0  0  0  0
    6.0424    1.9595    0.0000 C   0  0  0  0  0  0  0  0  0
    5.5575    1.2921    0.0000 F   0  0  0  0  0  0  0  0  0
  1  2  4  0  0  0  0
  1  5  4  0  0  0  0
  2  3  4  0  0  0  0
  3  4  4  0  0  0  0
  4  5  4  0  0  0  0
  5  6  1  0  0  0  0
  6  7  4  0  0  0  0
  6 11  4  0  0  0  0
  7  8  4  0  0  0  0
  8  9  4  0  0  0  0
  9 10  4  0  0  0  0
  9 12  1  0  0  0  0
 10 11  4  0  0  0  0
 12 13  2  0  0  0  0
 12 14  1  0  0  0  0
 14 15  1  0  0  0  0
 15 16  1  0  0  0  0
 15 19  1  0  0  0  0
 16 17  1  0  0  0  0
 17 18  1  0  0  0  0
 18 19  1  0  0  0  0
 18 20  1  0  0  0  0
 20 21  1  0  0  0  0
 21 22  4  0  0  0  0
 21 26  4  0  0  0  0
 22 23  4  0  0  0  0
 23 24  4  0  0  0  0
 24 25  4  0  0  0  0
 25 26  4  0  0  0  0
 26 27  1  0  0  0  0
M  END
>  <Name_Molregno>
333104

>  <DOPAMINE D2>
4.42

>  <DOPAMINE D4>
7.48

$$$$
333105
  Marvin  02231216192D 0   1.00000     0.00000     0

 27 30  0  0  1  0  0  0  0  0999 V2000
    3.9922   -4.5739    0.0000 S   0  0  0  0  0  0  0  0  0
    3.7372   -5.3585    0.0000 C   0  0  0  0  0  0  0  0  0
    2.9122   -5.3585    0.0000 C   0  0  0  0  0  0  0  0  0
    2.6573   -4.5739    0.0000 C   0  0  0  0  0  0  0  0  0
    3.3247   -4.0889    0.0000 C   0  0  0  0  0  0  0  0  0
    3.3247   -3.2639    0.0000 C   0  0  0  0  0  0  0  0  0
    2.6102   -2.8514    0.0000 C   0  0  0  0  0  0  0  0  0
    2.6102   -2.0264    0.0000 C   0  0  0  0  0  0  0  0  0
    3.3247   -1.6139    0.0000 C   0  0  0  0  0  0  0  0  0
    4.0392   -2.0264    0.0000 C   0  0  0  0  0  0  0  0  0
    4.0392   -2.8514    0.0000 C   0  0  0  0  0  0  0  0  0
    3.3247   -0.7889    0.0000 C   0  0  0  0  0  0  0  0  0
    2.6102   -0.3764    0.0000 O   0  0  0  0  0  0  0  0  0
    4.0392   -0.3764    0.0000 N   0  0  0  0  0  0  0  0  0
    4.0392    0.4486    0.0000 C   0  0  0  0  0  0  0  0  0
    3.3717    0.9335    0.0000 C   0  0  0  0  0  0  0  0  0
    3.6267    1.7181    0.0000 C   0  0  0  0  0  0  0  0  0
    4.4517    1.7181    0.0000 N   0  0  0  0  0  0  0  0  0
    4.7066    0.9335    0.0000 C   0  0  0  0  0  0  0  0  0
    4.9366    2.3855    0.0000 C   0  0  0  0  0  0  0  0  0
    5.7571    2.2993    0.0000 C   0  0  0  0  0  0  0  0  0
    6.2420    2.9667    0.0000 C   0  0  0  0  0  0  0  0  0
    7.0625    2.8805    0.0000 C   0  0  0  0  0  0  0  0  0
    7.3981    2.1268    0.0000 C   0  0  0  0  0  0  0  0  0
    8.2185    2.0406    0.0000 F   0  0  0  0  0  0  0  0  0
    6.9131    1.4594    0.0000 C   0  0  0  0  0  0  0  0  0
    6.0926    1.5456    0.0000 C   0  0  0  0  0  0  0  0  0
  1  2  4  0  0  0  0
  1  5  4  0  0  0  0
  2  3  4  0  0  0  0
  3  4  4  0  0  0  0
  4  5  4  0  0  0  0
  5  6  1  0  0  0  0
  6  7  4  0  0  0  0
  6 11  4  0  0  0  0
  7  8  4  0  0  0  0
  8  9  4  0  0  0  0
  9 10  4  0  0  0  0
  9 12  1  0  0  0  0
 10 11  4  0  0  0  0
 12 13  2  0  0  0  0
 12 14  1  0  0  0  0
 14 15  1  0  0  0  0
 15 16  1  0  0  0  0
 15 19  1  0  0  0  0
 16 17  1  0  0  0  0
 17 18  1  0  0  0  0
 18 19  1  0  0  0  0
 18 20  1  0  0  0  0
 20 21  1  0  0  0  0
 21 22  4  0  0  0  0
 21 27  4  0  0  0  0
 22 23  4  0  0  0  0
 23 24  4  0  0  0  0
 24 25  1  0  0  0  0
 24 26  4  0  0  0  0
 26 27  4  0  0  0  0
M  END
>  <Name_Molregno>
333105

>  <5-HT2A>
7.85

>  <DOPAMINE D2>
5.82

>  <DOPAMINE D4>
8.3

$$$$
333168
  Marvin  02231216192D 0   1.00000     0.00000     0

 31 34  0  0  1  0  0  0  0  0999 V2000
    7.2380   -4.5866    0.0000 S   0  0  0  0  0  0  0  0  0
    6.9831   -5.3712    0.0000 C   0  0  0  0  0  0  0  0  0
    6.1581   -5.3712    0.0000 C   0  0  0  0  0  0  0  0  0
    5.9031   -4.5866    0.0000 C   0  0  0  0  0  0  0  0  0
    6.5706   -4.1016    0.0000 C   0  0  0  0  0  0  0  0  0
    6.5706   -3.2766    0.0000 C   0  0  0  0  0  0  0  0  0
    5.8561   -2.8641    0.0000 C   0  0  0  0  0  0  0  0  0
    5.8561   -2.0391    0.0000 C   0  0  0  0  0  0  0  0  0
    6.5706   -1.6266    0.0000 C   0  0  0  0  0  0  0  0  0
    7.2850   -2.0391    0.0000 C   0  0  0  0  0  0  0  0  0
    7.2850   -2.8641    0.0000 C   0  0  0  0  0  0  0  0  0
    5.1416   -1.6266    0.0000 C   0  0  0  0  0  0  0  0  0
    4.4271   -2.0391    0.0000 O   0  0  0  0  0  0  0  0  0
    5.1416   -0.8016    0.0000 N   0  0  0  0  0  0  0  0  0
    4.4271   -0.3891    0.0000 C   0  0  0  0  0  0  0  0  0
    3.6735   -0.7247    0.0000 C   0  0  0  0  0  0  0  0  0
    3.1214   -0.1116    0.0000 C   0  0  0  0  0  0  0  0  0
    3.5339    0.6029    0.0000 N   0  0  0  0  0  0  0  0  0
    4.3409    0.4313    0.0000 C   0  0  0  0  0  0  0  0  0
    3.1984    1.3565    0.0000 C   0  0  0  0  0  0  0  0  0
    3.6833    2.0240    0.0000 C   0  0  0  0  0  0  0  0  0
    3.3477    2.7777    0.0000 C   0  0  0  0  0  0  0  0  0
    3.8327    3.4451    0.0000 C   0  0  0  0  0  0  0  0  0
    4.6531    3.3589    0.0000 C   0  0  0  0  0  0  0  0  0
    5.1381    4.0263    0.0000 O   0  0  0  0  0  0  0  0  0
    4.8025    4.7800    0.0000 C   0  0  0  0  0  0  0  0  0
    4.4670    5.5337    0.0000 F   0  0  0  0  0  0  0  0  0
    5.5562    5.1155    0.0000 F   0  0  0  0  0  0  0  0  0
    4.0488    4.4444    0.0000 F   0  0  0  0  0  0  0  0  0
    4.9887    2.6052    0.0000 C   0  0  0  0  0  0  0  0  0
    4.5038    1.9378    0.0000 C   0  0  0  0  0  0  0  0  0
  1  2  4  0  0  0  0
  1  5  4  0  0  0  0
  2  3  4  0  0  0  0
  3  4  4  0  0  0  0
  4  5  4  0  0  0  0
  5  6  1  0  0  0  0
  6  7  4  0  0  0  0
  6 11  4  0  0  0  0
  7  8  4  0  0  0  0
  8  9  4  0  0  0  0
  8 12  1  0  0  0  0
  9 10  4  0  0  0  0
 10 11  4  0  0  0  0
 12 13  2  0  0  0  0
 12 14  1  0  0  0  0
 14 15  1  0  0  0  0
 15 16  1  0  0  0  0
 15 19  1  0  0  0  0
 16 17  1  0  0  0  0
 17 18  1  0  0  0  0
 18 19  1  0  0  0  0
 18 20  1  0  0  0  0
 20 21  1  0  0  0  0
 21 22  4  0  0  0  0
 21 31  4  0  0  0  0
 22 23  4  0  0  0  0
 23 24  4  0  0  0  0
 24 25  1  0  0  0  0
 24 30  4  0  0  0  0
 25 26  1  0  0  0  0
 26 27  1  0  0  0  0
 26 28  1  0  0  0  0
 26 29  1  0  0  0  0
 30 31  4  0  0  0  0
M  END
>  <Name_Molregno>
333168

>  <5-HT2A>
5.25

>  <DOPAMINE D2>
6.3

>  <DOPAMINE D4>
7.28

$$$$
333174
  Marvin  02231216192D 0   1.00000     0.00000     0

 30 33  0  0  1  0  0  0  0  0999 V2000
    4.2876   -4.8242    0.0000 S   0  0  0  0  0  0  0  0  0
    4.0326   -5.6088    0.0000 C   0  0  0  0  0  0  0  0  0
    3.2076   -5.6088    0.0000 C   0  0  0  0  0  0  0  0  0
    2.9527   -4.8242    0.0000 C   0  0  0  0  0  0  0  0  0
    3.6201   -4.3393    0.0000 C   0  0  0  0  0  0  0  0  0
    3.6201   -3.5143    0.0000 C   0  0  0  0  0  0  0  0  0
    2.9057   -3.1018    0.0000 C   0  0  0  0  0  0  0  0  0
    2.9057   -2.2768    0.0000 C   0  0  0  0  0  0  0  0  0
    3.6201   -1.8643    0.0000 C   0  0  0  0  0  0  0  0  0
    4.3346   -2.2768    0.0000 C   0  0  0  0  0  0  0  0  0
    4.3346   -3.1018    0.0000 C   0  0  0  0  0  0  0  0  0
    3.6201   -1.0393    0.0000 C   0  0  0  0  0  0  0  0  0
    2.9057   -0.6268    0.0000 O   0  0  0  0  0  0  0  0  0
    4.3346   -0.6268    0.0000 N   0  0  0  0  0  0  0  0  0
    4.3346    0.1982    0.0000 C   0  0  0  0  0  0  0  0  0
    3.6672    0.6832    0.0000 C   0  0  0  0  0  0  0  0  0
    3.9221    1.4678    0.0000 C   0  0  0  0  0  0  0  0  0
    4.7471    1.4678    0.0000 N   0  0  0  0  0  0  0  0  0
    5.0020    0.6832    0.0000 C   0  0  0  0  0  0  0  0  0
    5.2320    2.1352    0.0000 C   0  0  0  0  0  0  0  0  0
    6.0525    2.0490    0.0000 C   0  0  0  0  0  0  0  0  0
    6.5374    2.7164    0.0000 C   0  0  0  0  0  0  0  0  0
    7.3579    2.6302    0.0000 C   0  0  0  0  0  0  0  0  0
    7.6935    1.8765    0.0000 C   0  0  0  0  0  0  0  0  0
    7.2085    1.2091    0.0000 C   0  0  0  0  0  0  0  0  0
    6.3881    1.2953    0.0000 C   0  0  0  0  0  0  0  0  0
    7.8428    3.2976    0.0000 C   0  0  0  0  0  0  0  0  0
    8.3277    3.9651    0.0000 F   0  0  0  0  0  0  0  0  0
    8.5103    2.8127    0.0000 F   0  0  0  0  0  0  0  0  0
    7.1754    3.7826    0.0000 F   0  0  0  0  0  0  0  0  0
  1  2  4  0  0  0  0
  1  5  4  0  0  0  0
  2  3  4  0  0  0  0
  3  4  4  0  0  0  0
  4  5  4  0  0  0  0
  5  6  1  0  0  0  0
  6  7  4  0  0  0  0
  6 11  4  0  0  0  0
  7  8  4  0  0  0  0
  8  9  4  0  0  0  0
  9 10  4  0  0  0  0
  9 12  1  0  0  0  0
 10 11  4  0  0  0  0
 12 13  2  0  0  0  0
 12 14  1  0  0  0  0
 14 15  1  0  0  0  0
 15 16  1  0  0  0  0
 15 19  1  0  0  0  0
 16 17  1  0  0  0  0
 17 18  1  0  0  0  0
 18 19  1  0  0  0  0
 18 20  1  0  0  0  0
 20 21  1  0  0  0  0
 21 22  4  0  0  0  0
 21 26  4  0  0  0  0
 22 23  4  0  0  0  0
 23 24  4  0  0  0  0
 23 27  1  0  0  0  0
 24 25  4  0  0  0  0
 25 26  4  0  0  0  0
 27 28  1  0  0  0  0
 27 29  1  0  0  0  0
 27 30  1  0  0  0  0
M  END
>  <Name_Molregno>
333174

>  <DOPAMINE D4>
7.66

$$$$
333175
  Marvin  02231216192D 0   1.00000     0.00000     0

 28 31  0  0  1  0  0  0  0  0999 V2000
    2.7693    4.8894    0.0000 Cl  0  0  0  0  0  0  0  0  0
    2.7693    4.0644    0.0000 C   0  0  0  0  0  0  0  0  0
    3.4838    3.6519    0.0000 C   0  0  0  0  0  0  0  0  0
    3.4838    2.8269    0.0000 C   0  0  0  0  0  0  0  0  0
    2.7693    2.4144    0.0000 C   0  0  0  0  0  0  0  0  0
    2.0549    2.8269    0.0000 C   0  0  0  0  0  0  0  0  0
    2.0549    3.6519    0.0000 C   0  0  0  0  0  0  0  0  0
    1.3404    4.0644    0.0000 Cl  0  0  0  0  0  0  0  0  0
    4.1983    2.4144    0.0000 C   0  0  0  0  0  0  0  0  0
    4.1983    1.5894    0.0000 N   0  0  0  0  0  0  0  0  0
    4.8657    1.1045    0.0000 C   0  0  0  0  0  0  0  0  0
    4.6108    0.3199    0.0000 C   0  0  0  0  0  0  0  0  0
    5.0957   -0.3475    0.0000 N   0  0  0  0  0  0  0  0  0
    5.9162   -0.2613    0.0000 C   0  0  0  0  0  0  0  0  0
    6.2517    0.4924    0.0000 O   0  0  0  0  0  0  0  0  0
    6.4011   -0.9287    0.0000 C   0  0  0  0  0  0  0  0  0
    7.2216   -0.8425    0.0000 C   0  0  0  0  0  0  0  0  0
    7.7065   -1.5099    0.0000 C   0  0  0  0  0  0  0  0  0
    7.3709   -2.2636    0.0000 C   0  0  0  0  0  0  0  0  0
    6.5505   -2.3499    0.0000 C   0  0  0  0  0  0  0  0  0
    6.0655   -1.6824    0.0000 C   0  0  0  0  0  0  0  0  0
    7.8559   -2.9311    0.0000 C   0  0  0  0  0  0  0  0  0
    8.6809   -2.9311    0.0000 S   0  0  0  0  0  0  0  0  0
    8.9358   -3.7157    0.0000 C   0  0  0  0  0  0  0  0  0
    8.2684   -4.2006    0.0000 C   0  0  0  0  0  0  0  0  0
    7.6009   -3.7157    0.0000 C   0  0  0  0  0  0  0  0  0
    3.7858    0.3199    0.0000 C   0  0  0  0  0  0  0  0  0
    3.5308    1.1045    0.0000 C   0  0  0  0  0  0  0  0  0
  1  2  1  0  0  0  0
  2  3  4  0  0  0  0
  2  7  4  0  0  0  0
  3  4  4  0  0  0  0
  4  5  4  0  0  0  0
  4  9  1  0  0  0  0
  5  6  4  0  0  0  0
  6  7  4  0  0  0  0
  7  8  1  0  0  0  0
  9 10  1  0  0  0  0
 10 11  1  0  0  0  0
 10 28  1  0  0  0  0
 11 12  1  0  0  0  0
 12 13  1  0  0  0  0
 12 27  1  0  0  0  0
 13 14  1  0  0  0  0
 14 15  2  0  0  0  0
 14 16  1  0  0  0  0
 16 17  4  0  0  0  0
 16 21  4  0  0  0  0
 17 18  4  0  0  0  0
 18 19  4  0  0  0  0
 19 20  4  0  0  0  0
 19 22  1  0  0  0  0
 20 21  4  0  0  0  0
 22 23  4  0  0  0  0
 22 26  4  0  0  0  0
 23 24  4  0  0  0  0
 24 25  4  0  0  0  0
 25 26  4  0  0  0  0
 27 28  1  0  0  0  0
M  END
>  <Name_Molregno>
333175

>  <5-HT2A>
7.66

>  <DOPAMINE D2>
4.54

>  <DOPAMINE D4>
7.82

$$$$
333184
  Marvin  02231216192D 0   1.00000     0.00000     0

 28 31  0  0  1  0  0  0  0  0999 V2000
    4.0893   -4.6075    0.0000 S   0  0  0  0  0  0  0  0  0
    3.8344   -5.3922    0.0000 C   0  0  0  0  0  0  0  0  0
    3.0094   -5.3922    0.0000 C   0  0  0  0  0  0  0  0  0
    2.7544   -4.6075    0.0000 C   0  0  0  0  0  0  0  0  0
    3.4219   -4.1226    0.0000 C   0  0  0  0  0  0  0  0  0
    3.4219   -3.2976    0.0000 C   0  0  0  0  0  0  0  0  0
    2.7074   -2.8851    0.0000 C   0  0  0  0  0  0  0  0  0
    2.7074   -2.0601    0.0000 C   0  0  0  0  0  0  0  0  0
    3.4219   -1.6476    0.0000 C   0  0  0  0  0  0  0  0  0
    4.1363   -2.0601    0.0000 C   0  0  0  0  0  0  0  0  0
    4.1363   -2.8851    0.0000 C   0  0  0  0  0  0  0  0  0
    3.4219   -0.8226    0.0000 C   0  0  0  0  0  0  0  0  0
    2.7074   -0.4101    0.0000 O   0  0  0  0  0  0  0  0  0
    4.1363   -0.4101    0.0000 N   0  0  0  0  0  0  0  0  0
    4.1363    0.4149    0.0000 C   0  0  0  0  0  0  0  0  0
    3.4689    0.8998    0.0000 C   0  0  0  0  0  0  0  0  0
    3.7238    1.6844    0.0000 C   0  0  0  0  0  0  0  0  0
    4.5488    1.6844    0.0000 N   0  0  0  0  0  0  0  0  0
    4.8038    0.8998    0.0000 C   0  0  0  0  0  0  0  0  0
    5.0338    2.3519    0.0000 C   0  0  0  0  0  0  0  0  0
    5.8542    2.2656    0.0000 C   0  0  0  0  0  0  0  0  0
    6.3392    2.9331    0.0000 C   0  0  0  0  0  0  0  0  0
    7.1596    2.8468    0.0000 C   0  0  0  0  0  0  0  0  0
    7.6446    3.5143    0.0000 F   0  0  0  0  0  0  0  0  0
    7.4952    2.0932    0.0000 C   0  0  0  0  0  0  0  0  0
    8.3157    2.0069    0.0000 F   0  0  0  0  0  0  0  0  0
    7.0103    1.4257    0.0000 C   0  0  0  0  0  0  0  0  0
    6.1898    1.5120    0.0000 C   0  0  0  0  0  0  0  0  0
  1  2  4  0  0  0  0
  1  5  4  0  0  0  0
  2  3  4  0  0  0  0
  3  4  4  0  0  0  0
  4  5  4  0  0  0  0
  5  6  1  0  0  0  0
  6  7  4  0  0  0  0
  6 11  4  0  0  0  0
  7  8  4  0  0  0  0
  8  9  4  0  0  0  0
  9 10  4  0  0  0  0
  9 12  1  0  0  0  0
 10 11  4  0  0  0  0
 12 13  2  0  0  0  0
 12 14  1  0  0  0  0
 14 15  1  0  0  0  0
 15 16  1  0  0  0  0
 15 19  1  0  0  0  0
 16 17  1  0  0  0  0
 17 18  1  0  0  0  0
 18 19  1  0  0  0  0
 18 20  1  0  0  0  0
 20 21  1  0  0  0  0
 21 22  4  0  0  0  0
 21 28  4  0  0  0  0
 22 23  4  0  0  0  0
 23 24  1  0  0  0  0
 23 25  4  0  0  0  0
 25 26  1  0  0  0  0
 25 27  4  0  0  0  0
 27 28  4  0  0  0  0
M  END
>  <Name_Molregno>
333184

>  <5-HT2A>
7.8

>  <DOPAMINE D2>
4.74

>  <DOPAMINE D4>
7.85

$$$$
333204
  Marvin  02231216192D 0   1.00000     0.00000     0

 28 31  0  0  1  0  0  0  0  0999 V2000
    4.1615   -4.6348    0.0000 S   0  0  0  0  0  0  0  0  0
    3.9065   -5.4194    0.0000 C   0  0  0  0  0  0  0  0  0
    3.0815   -5.4194    0.0000 C   0  0  0  0  0  0  0  0  0
    2.8266   -4.6348    0.0000 C   0  0  0  0  0  0  0  0  0
    3.4940   -4.1499    0.0000 C   0  0  0  0  0  0  0  0  0
    3.4940   -3.3249    0.0000 C   0  0  0  0  0  0  0  0  0
    2.7796   -2.9124    0.0000 C   0  0  0  0  0  0  0  0  0
    2.7796   -2.0874    0.0000 C   0  0  0  0  0  0  0  0  0
    3.4940   -1.6749    0.0000 C   0  0  0  0  0  0  0  0  0
    4.2085   -2.0874    0.0000 C   0  0  0  0  0  0  0  0  0
    4.2085   -2.9124    0.0000 C   0  0  0  0  0  0  0  0  0
    3.4940   -0.8499    0.0000 C   0  0  0  0  0  0  0  0  0
    2.7796   -0.4374    0.0000 O   0  0  0  0  0  0  0  0  0
    4.2085   -0.4374    0.0000 N   0  0  0  0  0  0  0  0  0
    4.2085    0.3876    0.0000 C   0  0  0  0  0  0  0  0  0
    3.5411    0.8726    0.0000 C   0  0  0  0  0  0  0  0  0
    3.7960    1.6572    0.0000 C   0  0  0  0  0  0  0  0  0
    4.6210    1.6572    0.0000 N   0  0  0  0  0  0  0  0  0
    4.8759    0.8726    0.0000 C   0  0  0  0  0  0  0  0  0
    5.1059    2.3246    0.0000 C   0  0  0  0  0  0  0  0  0
    5.9264    2.2384    0.0000 C   0  0  0  0  0  0  0  0  0
    6.4113    2.9058    0.0000 C   0  0  0  0  0  0  0  0  0
    7.2318    2.8196    0.0000 C   0  0  0  0  0  0  0  0  0
    7.7167    3.4870    0.0000 O   0  0  0  0  0  0  0  0  0
    7.3812    4.2407    0.0000 C   0  0  0  0  0  0  0  0  0
    7.5674    2.0659    0.0000 C   0  0  0  0  0  0  0  0  0
    7.0824    1.3985    0.0000 C   0  0  0  0  0  0  0  0  0
    6.2620    1.4847    0.0000 C   0  0  0  0  0  0  0  0  0
  1  2  4  0  0  0  0
  1  5  4  0  0  0  0
  2  3  4  0  0  0  0
  3  4  4  0  0  0  0
  4  5  4  0  0  0  0
  5  6  1  0  0  0  0
  6  7  4  0  0  0  0
  6 11  4  0  0  0  0
  7  8  4  0  0  0  0
  8  9  4  0  0  0  0
  9 10  4  0  0  0  0
  9 12  1  0  0  0  0
 10 11  4  0  0  0  0
 12 13  2  0  0  0  0
 12 14  1  0  0  0  0
 14 15  1  0  0  0  0
 15 16  1  0  0  0  0
 15 19  1  0  0  0  0
 16 17  1  0  0  0  0
 17 18  1  0  0  0  0
 18 19  1  0  0  0  0
 18 20  1  0  0  0  0
 20 21  1  0  0  0  0
 21 22  4  0  0  0  0
 21 28  4  0  0  0  0
 22 23  4  0  0  0  0
 23 24  1  0  0  0  0
 23 26  4  0  0  0  0
 24 25  1  0  0  0  0
 26 27  4  0  0  0  0
 27 28  4  0  0  0  0
M  END
>  <Name_Molregno>
333204

>  <5-HT2A>
7.66

>  <DOPAMINE D2>
5.35

>  <DOPAMINE D4>
7.85

$$$$
333209
  Marvin  02231216192D 0   1.00000     0.00000     0

 27 30  0  0  1  0  0  0  0  0999 V2000
    1.0338    3.5978    0.0000 Cl  0  0  0  0  0  0  0  0  0
    1.7483    3.1853    0.0000 C   0  0  0  0  0  0  0  0  0
    2.4628    3.5978    0.0000 C   0  0  0  0  0  0  0  0  0
    3.1772    3.1853    0.0000 C   0  0  0  0  0  0  0  0  0
    3.1772    2.3603    0.0000 C   0  0  0  0  0  0  0  0  0
    2.4628    1.9478    0.0000 C   0  0  0  0  0  0  0  0  0
    1.7483    2.3603    0.0000 C   0  0  0  0  0  0  0  0  0
    3.8917    1.9478    0.0000 C   0  0  0  0  0  0  0  0  0
    3.8917    1.1228    0.0000 N   0  0  0  0  0  0  0  0  0
    4.5592    0.6378    0.0000 C   0  0  0  0  0  0  0  0  0
    4.3042   -0.1468    0.0000 C   0  0  0  0  0  0  0  0  0
    4.7891   -0.8142    0.0000 N   0  0  0  0  0  0  0  0  0
    5.6096   -0.7280    0.0000 C   0  0  0  0  0  0  0  0  0
    5.9452    0.0257    0.0000 O   0  0  0  0  0  0  0  0  0
    6.0945   -1.3954    0.0000 C   0  0  0  0  0  0  0  0  0
    6.9150   -1.3092    0.0000 C   0  0  0  0  0  0  0  0  0
    7.3999   -1.9766    0.0000 C   0  0  0  0  0  0  0  0  0
    7.0644   -2.7303    0.0000 C   0  0  0  0  0  0  0  0  0
    6.2439   -2.8165    0.0000 C   0  0  0  0  0  0  0  0  0
    5.7590   -2.1491    0.0000 C   0  0  0  0  0  0  0  0  0
    8.2204   -1.8904    0.0000 C   0  0  0  0  0  0  0  0  0
    8.6329   -1.1759    0.0000 S   0  0  0  0  0  0  0  0  0
    9.4399   -1.3474    0.0000 C   0  0  0  0  0  0  0  0  0
    9.5261   -2.1679    0.0000 C   0  0  0  0  0  0  0  0  0
    8.7725   -2.5035    0.0000 C   0  0  0  0  0  0  0  0  0
    3.4792   -0.1468    0.0000 C   0  0  0  0  0  0  0  0  0
    3.2243    0.6378    0.0000 C   0  0  0  0  0  0  0  0  0
  1  2  1  0  0  0  0
  2  3  4  0  0  0  0
  2  7  4  0  0  0  0
  3  4  4  0  0  0  0
  4  5  4  0  0  0  0
  5  6  4  0  0  0  0
  5  8  1  0  0  0  0
  6  7  4  0  0  0  0
  8  9  1  0  0  0  0
  9 10  1  0  0  0  0
  9 27  1  0  0  0  0
 10 11  1  0  0  0  0
 11 12  1  0  0  0  0
 11 26  1  0  0  0  0
 12 13  1  0  0  0  0
 13 14  2  0  0  0  0
 13 15  1  0  0  0  0
 15 16  4  0  0  0  0
 15 20  4  0  0  0  0
 16 17  4  0  0  0  0
 17 18  4  0  0  0  0
 17 21  1  0  0  0  0
 18 19  4  0  0  0  0
 19 20  4  0  0  0  0
 21 22  4  0  0  0  0
 21 25  4  0  0  0  0
 22 23  4  0  0  0  0
 23 24  4  0  0  0  0
 24 25  4  0  0  0  0
 26 27  1  0  0  0  0
M  END
>  <Name_Molregno>
333209

>  <5-HT2A>
5.96

>  <DOPAMINE D2>
6.64

>  <DOPAMINE D4>
7.8

$$$$
333241
  Marvin  02231216192D 0   1.00000     0.00000     0

 30 33  0  0  1  0  0  0  0  0999 V2000
    4.0278   -4.8794    0.0000 S   0  0  0  0  0  0  0  0  0
    3.7729   -5.6640    0.0000 C   0  0  0  0  0  0  0  0  0
    2.9479   -5.6640    0.0000 C   0  0  0  0  0  0  0  0  0
    2.6929   -4.8794    0.0000 C   0  0  0  0  0  0  0  0  0
    3.3604   -4.3945    0.0000 C   0  0  0  0  0  0  0  0  0
    3.3604   -3.5695    0.0000 C   0  0  0  0  0  0  0  0  0
    2.6459   -3.1570    0.0000 C   0  0  0  0  0  0  0  0  0
    2.6459   -2.3320    0.0000 C   0  0  0  0  0  0  0  0  0
    3.3604   -1.9195    0.0000 C   0  0  0  0  0  0  0  0  0
    4.0749   -2.3320    0.0000 C   0  0  0  0  0  0  0  0  0
    4.0749   -3.1570    0.0000 C   0  0  0  0  0  0  0  0  0
    3.3604   -1.0945    0.0000 C   0  0  0  0  0  0  0  0  0
    2.6459   -0.6820    0.0000 O   0  0  0  0  0  0  0  0  0
    4.0749   -0.6820    0.0000 N   0  0  0  0  0  0  0  0  0
    4.0749    0.1430    0.0000 C   0  0  0  0  0  0  0  0  0
    3.4074    0.6279    0.0000 C   0  0  0  0  0  0  0  0  0
    3.6624    1.4126    0.0000 C   0  0  0  0  0  0  0  0  0
    4.4874    1.4126    0.0000 N   0  0  0  0  0  0  0  0  0
    4.7423    0.6279    0.0000 C   0  0  0  0  0  0  0  0  0
    4.9723    2.0800    0.0000 C   0  0  0  0  0  0  0  0  0
    5.7928    1.9938    0.0000 C   0  0  0  0  0  0  0  0  0
    6.2777    2.6612    0.0000 C   0  0  0  0  0  0  0  0  0
    7.0982    2.5750    0.0000 C   0  0  0  0  0  0  0  0  0
    7.4337    1.8213    0.0000 C   0  0  0  0  0  0  0  0  0
    6.9488    1.1539    0.0000 C   0  0  0  0  0  0  0  0  0
    6.1283    1.2401    0.0000 C   0  0  0  0  0  0  0  0  0
    8.2542    1.7351    0.0000 C   0  0  0  0  0  0  0  0  0
    9.0747    1.6488    0.0000 F   0  0  0  0  0  0  0  0  0
    8.1680    0.9146    0.0000 F   0  0  0  0  0  0  0  0  0
    8.3404    2.5555    0.0000 F   0  0  0  0  0  0  0  0  0
  1  2  4  0  0  0  0
  1  5  4  0  0  0  0
  2  3  4  0  0  0  0
  3  4  4  0  0  0  0
  4  5  4  0  0  0  0
  5  6  1  0  0  0  0
  6  7  4  0  0  0  0
  6 11  4  0  0  0  0
  7  8  4  0  0  0  0
  8  9  4  0  0  0  0
  9 10  4  0  0  0  0
  9 12  1  0  0  0  0
 10 11  4  0  0  0  0
 12 13  2  0  0  0  0
 12 14  1  0  0  0  0
 14 15  1  0  0  0  0
 15 16  1  0  0  0  0
 15 19  1  0  0  0  0
 16 17  1  0  0  0  0
 17 18  1  0  0  0  0
 18 19  1  0  0  0  0
 18 20  1  0  0  0  0
 20 21  1  0  0  0  0
 21 22  4  0  0  0  0
 21 26  4  0  0  0  0
 22 23  4  0  0  0  0
 23 24  4  0  0  0  0
 24 25  4  0  0  0  0
 24 27  1  0  0  0  0
 25 26  4  0  0  0  0
 27 28  1  0  0  0  0
 27 29  1  0  0  0  0
 27 30  1  0  0  0  0
M  END
>  <Name_Molregno>
333241

>  <5-HT2A>
6.89

>  <DOPAMINE D4>
7.85

$$$$
333242
  Marvin  02231216192D 0   1.00000     0.00000     0

 30 33  0  0  1  0  0  0  0  0999 V2000
    6.9000   -4.7139    0.0000 S   0  0  0  0  0  0  0  0  0
    6.6451   -5.4986    0.0000 C   0  0  0  0  0  0  0  0  0
    5.8201   -5.4986    0.0000 C   0  0  0  0  0  0  0  0  0
    5.5652   -4.7139    0.0000 C   0  0  0  0  0  0  0  0  0
    6.2326   -4.2290    0.0000 C   0  0  0  0  0  0  0  0  0
    6.2326   -3.4040    0.0000 C   0  0  0  0  0  0  0  0  0
    5.5181   -2.9915    0.0000 C   0  0  0  0  0  0  0  0  0
    5.5181   -2.1665    0.0000 C   0  0  0  0  0  0  0  0  0
    6.2326   -1.7540    0.0000 C   0  0  0  0  0  0  0  0  0
    6.9471   -2.1665    0.0000 C   0  0  0  0  0  0  0  0  0
    6.9471   -2.9915    0.0000 C   0  0  0  0  0  0  0  0  0
    4.8037   -1.7540    0.0000 C   0  0  0  0  0  0  0  0  0
    4.0892   -2.1665    0.0000 O   0  0  0  0  0  0  0  0  0
    4.8037   -0.9290    0.0000 N   0  0  0  0  0  0  0  0  0
    4.0892   -0.5165    0.0000 C   0  0  0  0  0  0  0  0  0
    3.3355   -0.8521    0.0000 C   0  0  0  0  0  0  0  0  0
    2.7835   -0.2390    0.0000 C   0  0  0  0  0  0  0  0  0
    3.1960    0.4755    0.0000 N   0  0  0  0  0  0  0  0  0
    4.0030    0.3040    0.0000 C   0  0  0  0  0  0  0  0  0
    2.8604    1.2292    0.0000 C   0  0  0  0  0  0  0  0  0
    3.3454    1.8966    0.0000 C   0  0  0  0  0  0  0  0  0
    3.0098    2.6503    0.0000 C   0  0  0  0  0  0  0  0  0
    3.4947    3.3177    0.0000 C   0  0  0  0  0  0  0  0  0
    4.3152    3.2315    0.0000 C   0  0  0  0  0  0  0  0  0
    4.6508    2.4778    0.0000 C   0  0  0  0  0  0  0  0  0
    4.1658    1.8104    0.0000 C   0  0  0  0  0  0  0  0  0
    4.8001    3.8989    0.0000 C   0  0  0  0  0  0  0  0  0
    5.2850    4.5664    0.0000 F   0  0  0  0  0  0  0  0  0
    5.4676    3.4140    0.0000 F   0  0  0  0  0  0  0  0  0
    4.1327    4.3839    0.0000 F   0  0  0  0  0  0  0  0  0
  1  2  4  0  0  0  0
  1  5  4  0  0  0  0
  2  3  4  0  0  0  0
  3  4  4  0  0  0  0
  4  5  4  0  0  0  0
  5  6  1  0  0  0  0
  6  7  4  0  0  0  0
  6 11  4  0  0  0  0
  7  8  4  0  0  0  0
  8  9  4  0  0  0  0
  8 12  1  0  0  0  0
  9 10  4  0  0  0  0
 10 11  4  0  0  0  0
 12 13  2  0  0  0  0
 12 14  1  0  0  0  0
 14 15  1  0  0  0  0
 15 16  1  0  0  0  0
 15 19  1  0  0  0  0
 16 17  1  0  0  0  0
 17 18  1  0  0  0  0
 18 19  1  0  0  0  0
 18 20  1  0  0  0  0
 20 21  1  0  0  0  0
 21 22  4  0  0  0  0
 21 26  4  0  0  0  0
 22 23  4  0  0  0  0
 23 24  4  0  0  0  0
 24 25  4  0  0  0  0
 24 27  1  0  0  0  0
 25 26  4  0  0  0  0
 27 28  1  0  0  0  0
 27 29  1  0  0  0  0
 27 30  1  0  0  0  0
M  END
>  <Name_Molregno>
333242

>  <5-HT2A>
6.13

>  <DOPAMINE D2>
5.89

>  <DOPAMINE D4>
7.68

$$$$
333247
  Marvin  02231216192D 0   1.00000     0.00000     0

 27 30  0  0  1  0  0  0  0  0999 V2000
    6.4109   -3.5260    0.0000 S   0  0  0  0  0  0  0  0  0
    6.1560   -4.3106    0.0000 C   0  0  0  0  0  0  0  0  0
    5.3310   -4.3106    0.0000 C   0  0  0  0  0  0  0  0  0
    5.0760   -3.5260    0.0000 C   0  0  0  0  0  0  0  0  0
    5.7435   -3.0411    0.0000 C   0  0  0  0  0  0  0  0  0
    5.7435   -2.2161    0.0000 C   0  0  0  0  0  0  0  0  0
    5.0290   -1.8036    0.0000 C   0  0  0  0  0  0  0  0  0
    5.0290   -0.9786    0.0000 C   0  0  0  0  0  0  0  0  0
    5.7435   -0.5661    0.0000 C   0  0  0  0  0  0  0  0  0
    6.4579   -0.9786    0.0000 C   0  0  0  0  0  0  0  0  0
    6.4579   -1.8036    0.0000 C   0  0  0  0  0  0  0  0  0
    4.3145   -0.5661    0.0000 C   0  0  0  0  0  0  0  0  0
    3.6000   -0.9786    0.0000 O   0  0  0  0  0  0  0  0  0
    4.3145    0.2589    0.0000 N   0  0  0  0  0  0  0  0  0
    3.6000    0.6714    0.0000 C   0  0  0  0  0  0  0  0  0
    2.8464    0.3359    0.0000 C   0  0  0  0  0  0  0  0  0
    2.2943    0.9490    0.0000 C   0  0  0  0  0  0  0  0  0
    2.7068    1.6635    0.0000 N   0  0  0  0  0  0  0  0  0
    3.5138    1.4919    0.0000 C   0  0  0  0  0  0  0  0  0
    2.3713    2.4171    0.0000 C   0  0  0  0  0  0  0  0  0
    2.8562    3.0846    0.0000 C   0  0  0  0  0  0  0  0  0
    2.5206    3.8382    0.0000 C   0  0  0  0  0  0  0  0  0
    3.0056    4.5057    0.0000 C   0  0  0  0  0  0  0  0  0
    3.8260    4.4194    0.0000 C   0  0  0  0  0  0  0  0  0
    4.1616    3.6658    0.0000 C   0  0  0  0  0  0  0  0  0
    3.6767    2.9983    0.0000 C   0  0  0  0  0  0  0  0  0
    4.3110    5.0869    0.0000 C   0  0  0  0  0  0  0  0  0
  1  2  4  0  0  0  0
  1  5  4  0  0  0  0
  2  3  4  0  0  0  0
  3  4  4  0  0  0  0
  4  5  4  0  0  0  0
  5  6  1  0  0  0  0
  6  7  4  0  0  0  0
  6 11  4  0  0  0  0
  7  8  4  0  0  0  0
  8  9  4  0  0  0  0
  8 12  1  0  0  0  0
  9 10  4  0  0  0  0
 10 11  4  0  0  0  0
 12 13  2  0  0  0  0
 12 14  1  0  0  0  0
 14 15  1  0  0  0  0
 15 16  1  0  0  0  0
 15 19  1  0  0  0  0
 16 17  1  0  0  0  0
 17 18  1  0  0  0  0
 18 19  1  0  0  0  0
 18 20  1  0  0  0  0
 20 21  1  0  0  0  0
 21 22  4  0  0  0  0
 21 26  4  0  0  0  0
 22 23  4  0  0  0  0
 23 24  4  0  0  0  0
 24 25  4  0  0  0  0
 24 27  1  0  0  0  0
 25 26  4  0  0  0  0
M  END
>  <Name_Molregno>
333247

>  <5-HT2A>
6.21

>  <DOPAMINE D2>
7.22

>  <DOPAMINE D4>
8.4

$$$$
333304
  Marvin  02231216192D 0   1.00000     0.00000     0

 29 33  0  0  1  0  0  0  0  0999 V2000
    7.1683    3.0799    0.0000 S   0  0  0  0  0  0  0  0  0
    7.7203    3.6929    0.0000 C   0  0  0  0  0  0  0  0  0
    8.4740    3.3574    0.0000 C   0  0  0  0  0  0  0  0  0
    8.3877    2.5369    0.0000 C   0  0  0  0  0  0  0  0  0
    7.5808    2.3654    0.0000 C   0  0  0  0  0  0  0  0  0
    7.2452    1.6117    0.0000 C   0  0  0  0  0  0  0  0  0
    7.7301    0.9443    0.0000 C   0  0  0  0  0  0  0  0  0
    7.3946    0.1906    0.0000 C   0  0  0  0  0  0  0  0  0
    6.5741    0.1044    0.0000 C   0  0  0  0  0  0  0  0  0
    6.0892    0.7718    0.0000 C   0  0  0  0  0  0  0  0  0
    6.4247    1.5255    0.0000 C   0  0  0  0  0  0  0  0  0
    6.2385   -0.6493    0.0000 C   0  0  0  0  0  0  0  0  0
    6.7235   -1.3168    0.0000 O   0  0  0  0  0  0  0  0  0
    5.4181   -0.7356    0.0000 N   0  0  0  0  0  0  0  0  0
    5.0825   -1.4892    0.0000 C   0  0  0  0  0  0  0  0  0
    5.4950   -2.2037    0.0000 C   0  0  0  0  0  0  0  0  0
    4.9430   -2.8168    0.0000 C   0  0  0  0  0  0  0  0  0
    4.1893   -2.4812    0.0000 N   0  0  0  0  0  0  0  0  0
    4.2755   -1.6608    0.0000 C   0  0  0  0  0  0  0  0  0
    3.4748   -2.8937    0.0000 C   0  0  0  0  0  0  0  0  0
    2.7603   -2.4812    0.0000 C   0  0  0  0  0  0  0  0  0
    2.0459   -2.8937    0.0000 C   0  0  0  0  0  0  0  0  0
    1.3314   -2.4812    0.0000 C   0  0  0  0  0  0  0  0  0
    0.5468   -2.7362    0.0000 O   0  0  0  0  0  0  0  0  0
    0.0619   -2.0687    0.0000 C   0  0  0  0  0  0  0  0  0
    0.5468   -1.4013    0.0000 O   0  0  0  0  0  0  0  0  0
    1.3314   -1.6562    0.0000 C   0  0  0  0  0  0  0  0  0
    2.0459   -1.2437    0.0000 C   0  0  0  0  0  0  0  0  0
    2.7603   -1.6562    0.0000 C   0  0  0  0  0  0  0  0  0
  1  2  4  0  0  0  0
  1  5  4  0  0  0  0
  2  3  4  0  0  0  0
  3  4  4  0  0  0  0
  4  5  4  0  0  0  0
  5  6  1  0  0  0  0
  6  7  4  0  0  0  0
  6 11  4  0  0  0  0
  7  8  4  0  0  0  0
  8  9  4  0  0  0  0
  9 10  4  0  0  0  0
  9 12  1  0  0  0  0
 10 11  4  0  0  0  0
 12 13  2  0  0  0  0
 12 14  1  0  0  0  0
 14 15  1  0  0  0  0
 15 16  1  0  0  0  0
 15 19  1  0  0  0  0
 16 17  1  0  0  0  0
 17 18  1  0  0  0  0
 18 19  1  0  0  0  0
 18 20  1  0  0  0  0
 20 21  1  0  0  0  0
 21 22  4  0  0  0  0
 21 29  4  0  0  0  0
 22 23  4  0  0  0  0
 23 24  1  0  0  0  0
 23 27  4  0  0  0  0
 24 25  1  0  0  0  0
 25 26  1  0  0  0  0
 26 27  1  0  0  0  0
 27 28  4  0  0  0  0
 28 29  4  0  0  0  0
M  END
>  <Name_Molregno>
333304

>  <DOPAMINE D2>
5.74

>  <DOPAMINE D4>
8.15

$$$$
333324
  Marvin  02231216192D 0   1.00000     0.00000     0

 31 34  0  0  1  0  0  0  0  0999 V2000
    4.2429   -4.8097    0.0000 S   0  0  0  0  0  0  0  0  0
    3.9880   -5.5943    0.0000 C   0  0  0  0  0  0  0  0  0
    3.1630   -5.5943    0.0000 C   0  0  0  0  0  0  0  0  0
    2.9080   -4.8097    0.0000 C   0  0  0  0  0  0  0  0  0
    3.5755   -4.3247    0.0000 C   0  0  0  0  0  0  0  0  0
    3.5755   -3.4997    0.0000 C   0  0  0  0  0  0  0  0  0
    2.8610   -3.0872    0.0000 C   0  0  0  0  0  0  0  0  0
    2.8610   -2.2622    0.0000 C   0  0  0  0  0  0  0  0  0
    3.5755   -1.8497    0.0000 C   0  0  0  0  0  0  0  0  0
    4.2900   -2.2622    0.0000 C   0  0  0  0  0  0  0  0  0
    4.2900   -3.0872    0.0000 C   0  0  0  0  0  0  0  0  0
    3.5755   -1.0247    0.0000 C   0  0  0  0  0  0  0  0  0
    2.8610   -0.6122    0.0000 O   0  0  0  0  0  0  0  0  0
    4.2900   -0.6122    0.0000 N   0  0  0  0  0  0  0  0  0
    4.2900    0.2128    0.0000 C   0  0  0  0  0  0  0  0  0
    3.6225    0.6977    0.0000 C   0  0  0  0  0  0  0  0  0
    3.8775    1.4823    0.0000 C   0  0  0  0  0  0  0  0  0
    4.7025    1.4823    0.0000 N   0  0  0  0  0  0  0  0  0
    4.9574    0.6977    0.0000 C   0  0  0  0  0  0  0  0  0
    5.1874    2.1497    0.0000 C   0  0  0  0  0  0  0  0  0
    6.0079    2.0635    0.0000 C   0  0  0  0  0  0  0  0  0
    6.4928    2.7309    0.0000 C   0  0  0  0  0  0  0  0  0
    7.3133    2.6447    0.0000 C   0  0  0  0  0  0  0  0  0
    7.6488    1.8910    0.0000 C   0  0  0  0  0  0  0  0  0
    8.4693    1.8048    0.0000 O   0  0  0  0  0  0  0  0  0
    8.9542    2.4722    0.0000 C   0  0  0  0  0  0  0  0  0
    9.4391    3.1397    0.0000 F   0  0  0  0  0  0  0  0  0
    9.6217    1.9873    0.0000 F   0  0  0  0  0  0  0  0  0
    8.2868    2.9572    0.0000 F   0  0  0  0  0  0  0  0  0
    7.1639    1.2236    0.0000 C   0  0  0  0  0  0  0  0  0
    6.3434    1.3098    0.0000 C   0  0  0  0  0  0  0  0  0
  1  2  4  0  0  0  0
  1  5  4  0  0  0  0
  2  3  4  0  0  0  0
  3  4  4  0  0  0  0
  4  5  4  0  0  0  0
  5  6  1  0  0  0  0
  6  7  4  0  0  0  0
  6 11  4  0  0  0  0
  7  8  4  0  0  0  0
  8  9  4  0  0  0  0
  9 10  4  0  0  0  0
  9 12  1  0  0  0  0
 10 11  4  0  0  0  0
 12 13  2  0  0  0  0
 12 14  1  0  0  0  0
 14 15  1  0  0  0  0
 15 16  1  0  0  0  0
 15 19  1  0  0  0  0
 16 17  1  0  0  0  0
 17 18  1  0  0  0  0
 18 19  1  0  0  0  0
 18 20  1  0  0  0  0
 20 21  1  0  0  0  0
 21 22  4  0  0  0  0
 21 31  4  0  0  0  0
 22 23  4  0  0  0  0
 23 24  4  0  0  0  0
 24 25  1  0  0  0  0
 24 30  4  0  0  0  0
 25 26  1  0  0  0  0
 26 27  1  0  0  0  0
 26 28  1  0  0  0  0
 26 29  1  0  0  0  0
 30 31  4  0  0  0  0
M  END
>  <Name_Molregno>
333324

>  <5-HT2A>
6.85

>  <DOPAMINE D4>
7.11

$$$$
335202
  Marvin  02231216192D 0   1.00000     0.00000     0

 31 34  0  0  0  0  0  0  0  0999 V2000
   -5.3316    5.4643    0.0000 O   0  0  0  0  0  0  0  0  0
   -6.0461    5.8768    0.0000 C   0  0  0  0  0  0  0  0  0
   -4.6172    5.8768    0.0000 C   0  0  0  0  0  0  0  0  0
   -3.9027    5.4643    0.0000 C   0  0  0  0  0  0  0  0  0
   -3.1882    5.8768    0.0000 C   0  0  0  0  0  0  0  0  0
   -3.1882    6.7018    0.0000 C   0  0  0  0  0  0  0  0  0
   -3.9027    7.1143    0.0000 C   0  0  0  0  0  0  0  0  0
   -4.6172    6.7018    0.0000 C   0  0  0  0  0  0  0  0  0
   -2.4737    7.1143    0.0000 C   0  0  0  0  0  0  0  0  0
   -1.7593    6.7018    0.0000 C   0  0  0  0  0  0  0  0  0
   -1.7593    5.8768    0.0000 C   0  0  0  0  0  0  0  0  0
   -2.4737    5.4643    0.0000 C   0  0  0  0  0  0  0  0  0
   -2.4737    4.6393    0.0000 N   0  0  0  0  0  0  0  0  0
   -1.7593    4.2268    0.0000 C   0  0  0  0  0  0  0  0  0
   -1.7593    3.4018    0.0000 C   0  0  0  0  0  0  0  0  0
   -2.4737    2.9893    0.0000 N   0  0  0  0  0  0  0  0  0
   -3.1882    3.4018    0.0000 C   0  0  0  0  0  0  0  0  0
   -3.1882    4.2268    0.0000 C   0  0  0  0  0  0  0  0  0
   -2.4737    2.1643    0.0000 C   0  0  0  0  0  0  0  0  0
   -1.7593    1.7518    0.0000 C   0  0  0  0  0  0  0  0  0
   -1.7593    0.9268    0.0000 C   0  0  0  0  0  0  0  0  0
   -1.0448    0.5143    0.0000 C   0  0  0  0  0  0  0  0  0
   -1.0448   -0.3107    0.0000 N   0  0  0  0  0  0  0  0  0
   -0.3303   -0.7232    0.0000 N   0  0  0  0  0  0  0  0  0
   -0.3303   -1.5482    0.0000 C   0  0  0  0  0  0  0  0  0
   -1.0448   -1.9607    0.0000 C   0  0  0  0  0  0  0  0  0
   -1.0448   -2.7857    0.0000 O   0  0  0  0  0  0  0  0  0
   -1.7593   -1.5482    0.0000 N   0  0  0  0  0  0  0  0  0
   -2.4737   -1.9607    0.0000 C   0  0  0  0  0  0  0  0  0
   -1.7593   -0.7232    0.0000 C   0  0  0  0  0  0  0  0  0
   -2.4737   -0.3107    0.0000 O   0  0  0  0  0  0  0  0  0
  1  2  1  0  0  0  0
  1  3  1  0  0  0  0
  3  4  4  0  0  0  0
  3  8  4  0  0  0  0
  4  5  4  0  0  0  0
  5  6  4  0  0  0  0
  5 12  4  0  0  0  0
  6  7  4  0  0  0  0
  6  9  4  0  0  0  0
  7  8  4  0  0  0  0
  9 10  4  0  0  0  0
 10 11  4  0  0  0  0
 11 12  4  0  0  0  0
 12 13  1  0  0  0  0
 13 14  1  0  0  0  0
 13 18  1  0  0  0  0
 14 15  1  0  0  0  0
 15 16  1  0  0  0  0
 16 17  1  0  0  0  0
 16 19  1  0  0  0  0
 17 18  1  0  0  0  0
 19 20  1  0  0  0  0
 20 21  1  0  0  0  0
 21 22  1  0  0  0  0
 22 23  1  0  0  0  0
 23 24  1  0  0  0  0
 23 30  1  0  0  0  0
 24 25  2  0  0  0  0
 25 26  1  0  0  0  0
 26 27  2  0  0  0  0
 26 28  1  0  0  0  0
 28 29  1  0  0  0  0
 28 30  1  0  0  0  0
 30 31  2  0  0  0  0
M  END
>  <Name_Molregno>
335202

>  <5-HT1A>
8.87

>  <5-HT2A>
7.38

>  <5-HT2C>
7

>  <5-HT3>
5

>  <5-HT5>
6.64

>  <5-HT6>
6.92

>  <5-HT7>
8.04

>  <Alpha-2A>
5.99

>  <Alpha-2B>
6.5

>  <Alpha-2C>
7.63

>  <Beta-1>
6.32

>  <Beta-2>
7.22

>  <DOPAMINE D1>
5.13

>  <DOPAMINE D2>
7.66

>  <DOPAMINE D3>
7.2

>  <DOPAMINE D4>
8.07

>  <DOPAMINE D5>
5

>  <Dopamine transporter>
6.39

>  <HISTAMINE H1>
6.82

>  <HISTAMINE H2>
6.52

>  <HISTAMINE H3>
5

>  <HISTAMINE H4>
5

>  <Norepinephrine transporter>
5.16

>  <Serotonin transporter>
5.21

$$$$
336537
  Marvin  02231216192D 0   1.00000     0.00000     0

 23 26  0  0  0  0  0  0  0  0999 V2000
    0.3598   -0.2967    0.0000 N   0  0  0  0  0  0  0  0  0
    0.6106   -1.0826    0.0000 C   0  0  0  0  0  0  0  0  0
    1.3625   -1.4222    0.0000 C   0  0  0  0  0  0  0  0  0
    2.0325   -0.9409    0.0000 C   0  0  0  0  0  0  0  0  0
    2.7843   -1.2804    0.0000 C   0  0  0  0  0  0  0  0  0
    2.8662   -2.1014    0.0000 C   0  0  0  0  0  0  0  0  0
    2.1962   -2.5827    0.0000 C   0  0  0  0  0  0  0  0  0
    1.4443   -2.2431    0.0000 N   0  0  0  0  0  0  0  0  0
    0.7743   -2.7245    0.0000 C   0  0  0  0  0  0  0  0  0
    0.0224   -2.3849    0.0000 C   0  0  0  0  0  0  0  0  0
   -0.0594   -1.5640    0.0000 C   0  0  0  0  0  0  0  0  0
   -0.7243   -1.0755    0.0000 C   0  0  0  0  0  0  0  0  0
   -0.4652   -0.2923    0.0000 C   0  0  0  0  0  0  0  0  0
   -1.0139    0.3238    0.0000 C   0  0  0  0  0  0  0  0  0
   -1.8218    0.1565    0.0000 C   0  0  0  0  0  0  0  0  0
   -2.0809   -0.6267    0.0000 C   0  0  0  0  0  0  0  0  0
   -1.5322   -1.2427    0.0000 C   0  0  0  0  0  0  0  0  0
    1.5262   -3.0641    0.0000 C   0  0  0  0  0  0  0  0  0
    2.2781   -3.4036    0.0000 C   0  0  0  0  0  0  0  0  0
    3.4544   -0.7991    0.0000 C   0  0  0  0  0  0  0  0  0
    3.3725    0.0219    0.0000 C   0  0  0  0  0  0  0  0  0
    2.6206    0.3614    0.0000 C   0  0  0  0  0  0  0  0  0
    1.9506   -0.1199    0.0000 C   0  0  0  0  0  0  0  0  0
  1  2  4  0  0  0  0
  1 13  4  0  0  0  0
  2  3  1  0  0  0  0
  2 11  4  0  0  0  0
  3  4  1  0  0  0  0
  4  5  4  0  0  0  0
  4 23  4  0  0  0  0
  5  6  1  0  0  0  0
  5 20  4  0  0  0  0
  6  7  1  0  0  0  0
  7  8  1  0  0  0  0
  8  9  1  0  0  0  0
  8 18  1  0  0  0  0
  9 10  1  0  0  0  0
 10 11  1  0  0  0  0
 11 12  4  0  0  0  0
 12 13  4  0  0  0  0
 12 17  4  0  0  0  0
 13 14  4  0  0  0  0
 14 15  4  0  0  0  0
 15 16  4  0  0  0  0
 16 17  4  0  0  0  0
 18 19  1  0  0  0  0
 20 21  4  0  0  0  0
 21 22  4  0  0  0  0
 22 23  4  0  0  0  0
M  STY  1   1 DAT
M  SAL   1  1   1
M  SDT   1 MRV_IMPLICIT_H                                        
M  SDD   1     0.0000    0.0000    DR    ALL  0       0  
M  SED   1 IMPL_H1
M  END
>  <Name_Molregno>
336537

>  <DOPAMINE D1>
7.28

>  <DOPAMINE D2>
6.84

>  <DOPAMINE D4>
6.42

>  <DOPAMINE D5>
7.74

$$$$
336538
  Marvin  02231216192D 0   1.00000     0.00000     0

 23 25  0  0  0  0  0  0  0  0999 V2000
    0.9668    3.6013    0.0000 O   0  0  0  0  0  0  0  0  0
    0.2524    4.0138    0.0000 C   0  0  0  0  0  0  0  0  0
    0.9668    2.7763    0.0000 C   0  0  0  0  0  0  0  0  0
    1.6813    2.3638    0.0000 C   0  0  0  0  0  0  0  0  0
    1.6813    1.5388    0.0000 C   0  0  0  0  0  0  0  0  0
    2.3958    1.1263    0.0000 C   0  0  0  0  0  0  0  0  0
    3.1102    1.5388    0.0000 C   0  0  0  0  0  0  0  0  0
    3.8247    1.1263    0.0000 C   0  0  0  0  0  0  0  0  0
    3.8247    0.3013    0.0000 C   0  0  0  0  0  0  0  0  0
    3.1102   -0.1112    0.0000 C   0  0  0  0  0  0  0  0  0
    2.3958    0.3013    0.0000 N   0  0  0  0  0  0  0  0  0
    1.6813   -0.1112    0.0000 C   0  0  0  0  0  0  0  0  0
    0.9668    0.3013    0.0000 C   0  0  0  0  0  0  0  0  0
    0.9668    1.1263    0.0000 C   0  0  0  0  0  0  0  0  0
    0.2524    1.5388    0.0000 C   0  0  0  0  0  0  0  0  0
    0.2524    2.3638    0.0000 C   0  0  0  0  0  0  0  0  0
   -0.4621    2.7763    0.0000 O   0  0  0  0  0  0  0  0  0
   -1.1766    2.3638    0.0000 C   0  0  0  0  0  0  0  0  0
    1.9109    0.9687    0.0000 C   0  0  0  0  0  0  0  0  0
    4.5392    1.5388    0.0000 C   0  0  0  0  0  0  0  0  0
    4.5392    2.3638    0.0000 C   0  0  0  0  0  0  0  0  0
    3.8247    2.7763    0.0000 C   0  0  0  0  0  0  0  0  0
    3.1102    2.3638    0.0000 C   0  0  0  0  0  0  0  0  0
  1  2  1  0  0  0  0
  1  3  1  0  0  0  0
  3  4  4  0  0  0  0
  3 16  4  0  0  0  0
  4  5  4  0  0  0  0
  5  6  1  0  0  0  0
  5 14  4  0  0  0  0
  6  7  1  0  0  0  0
  7  8  4  0  0  0  0
  7 23  4  0  0  0  0
  8  9  1  0  0  0  0
  8 20  4  0  0  0  0
  9 10  1  0  0  0  0
 10 11  1  0  0  0  0
 11 12  1  0  0  0  0
 11 19  1  0  0  0  0
 12 13  1  0  0  0  0
 13 14  1  0  0  0  0
 14 15  4  0  0  0  0
 15 16  4  0  0  0  0
 16 17  1  0  0  0  0
 17 18  1  0  0  0  0
 20 21  4  0  0  0  0
 21 22  4  0  0  0  0
 22 23  4  0  0  0  0
M  END
>  <Name_Molregno>
336538

>  <DOPAMINE D1>
6.29

>  <DOPAMINE D2>
5.3

>  <DOPAMINE D4>
5.6

>  <DOPAMINE D5>
5.58

$$$$
336544
  Marvin  02231216192D 0   1.00000     0.00000     0

 25 29  0  0  0  0  0  0  0  0999 V2000
    1.1489    0.2869    0.0000 N   0  0  0  0  0  0  0  0  0
    1.3996   -0.4991    0.0000 C   0  0  0  0  0  0  0  0  0
    2.1515   -0.8386    0.0000 C   0  0  0  0  0  0  0  0  0
    2.8215   -0.3573    0.0000 C   0  0  0  0  0  0  0  0  0
    3.5734   -0.6969    0.0000 C   0  0  0  0  0  0  0  0  0
    3.6553   -1.5178    0.0000 C   0  0  0  0  0  0  0  0  0
    2.9852   -1.9991    0.0000 C   0  0  0  0  0  0  0  0  0
    2.2334   -1.6596    0.0000 N   0  0  0  0  0  0  0  0  0
    1.5633   -2.1409    0.0000 C   0  0  0  0  0  0  0  0  0
    0.8115   -1.8014    0.0000 C   0  0  0  0  0  0  0  0  0
    0.7296   -0.9804    0.0000 C   0  0  0  0  0  0  0  0  0
    0.0648   -0.4920    0.0000 C   0  0  0  0  0  0  0  0  0
    0.3239    0.2913    0.0000 C   0  0  0  0  0  0  0  0  0
   -0.2249    0.9073    0.0000 C   0  0  0  0  0  0  0  0  0
   -1.0327    0.7401    0.0000 C   0  0  0  0  0  0  0  0  0
   -1.2919   -0.0431    0.0000 C   0  0  0  0  0  0  0  0  0
   -0.7431   -0.6592    0.0000 C   0  0  0  0  0  0  0  0  0
    2.3152   -2.4805    0.0000 C   0  0  0  0  0  0  0  0  0
    1.6452   -2.9619    0.0000 C   0  0  0  0  0  0  0  0  0
    1.3056   -3.7137    0.0000 C   0  0  0  0  0  0  0  0  0
    0.8243   -3.0437    0.0000 C   0  0  0  0  0  0  0  0  0
    4.2434   -0.2155    0.0000 C   0  0  0  0  0  0  0  0  0
    4.1615    0.6054    0.0000 C   0  0  0  0  0  0  0  0  0
    3.4097    0.9450    0.0000 C   0  0  0  0  0  0  0  0  0
    2.7397    0.4636    0.0000 C   0  0  0  0  0  0  0  0  0
  1  2  4  0  0  0  0
  1 13  4  0  0  0  0
  2  3  1  0  0  0  0
  2 11  4  0  0  0  0
  3  4  1  0  0  0  0
  4  5  4  0  0  0  0
  4 25  4  0  0  0  0
  5  6  1  0  0  0  0
  5 22  4  0  0  0  0
  6  7  1  0  0  0  0
  7  8  1  0  0  0  0
  8  9  1  0  0  0  0
  8 18  1  0  0  0  0
  9 10  1  0  0  0  0
 10 11  1  0  0  0  0
 11 12  4  0  0  0  0
 12 13  4  0  0  0  0
 12 17  4  0  0  0  0
 13 14  4  0  0  0  0
 14 15  4  0  0  0  0
 15 16  4  0  0  0  0
 16 17  4  0  0  0  0
 18 19  1  0  0  0  0
 19 20  1  0  0  0  0
 19 21  1  0  0  0  0
 20 21  1  0  0  0  0
 22 23  4  0  0  0  0
 23 24  4  0  0  0  0
 24 25  4  0  0  0  0
M  STY  1   1 DAT
M  SAL   1  1   1
M  SDT   1 MRV_IMPLICIT_H                                        
M  SDD   1     0.0000    0.0000    DR    ALL  0       0  
M  SED   1 IMPL_H1
M  END
>  <Name_Molregno>
336544

>  <DOPAMINE D1>
6.12

>  <DOPAMINE D2>
5.3

>  <DOPAMINE D4>
5.3

>  <DOPAMINE D5>
6.05

$$$$
336546
  Marvin  02231216192D 0   1.00000     0.00000     0

 19 21  0  0  0  0  0  0  0  0999 V2000
   -0.0062   -0.9132    0.0000 N   0  0  0  0  0  0  0  0  0
    0.5811   -0.3338    0.0000 C   0  0  0  0  0  0  0  0  0
    0.5435    0.4903    0.0000 C   0  0  0  0  0  0  0  0  0
    1.2384    0.9350    0.0000 C   0  0  0  0  0  0  0  0  0
    1.9710    0.5555    0.0000 N   0  0  0  0  0  0  0  0  0
    2.6659    1.0001    0.0000 C   0  0  0  0  0  0  0  0  0
    3.3984    0.6206    0.0000 C   0  0  0  0  0  0  0  0  0
    3.4360   -0.2035    0.0000 C   0  0  0  0  0  0  0  0  0
    2.7411   -0.6482    0.0000 C   0  0  0  0  0  0  0  0  0
    2.0086   -0.2687    0.0000 C   0  0  0  0  0  0  0  0  0
    1.3136   -0.7133    0.0000 C   0  0  0  0  0  0  0  0  0
    1.1791   -1.5273    0.0000 C   0  0  0  0  0  0  0  0  0
    0.3634   -1.6508    0.0000 C   0  0  0  0  0  0  0  0  0
    2.7787   -1.4723    0.0000 C   0  0  0  0  0  0  0  0  0
    3.5112   -1.8518    0.0000 C   0  0  0  0  0  0  0  0  0
    4.2062   -1.4072    0.0000 C   0  0  0  0  0  0  0  0  0
    4.1686   -0.5830    0.0000 C   0  0  0  0  0  0  0  0  0
    1.5170   -0.1334    0.0000 C   0  0  0  0  0  0  0  0  0
   -0.8201   -0.7787    0.0000 C   0  0  0  0  0  0  0  0  0
  1  2  4  0  0  0  0
  1 13  4  0  0  0  0
  1 19  1  0  0  0  0
  2  3  1  0  0  0  0
  2 11  4  0  0  0  0
  3  4  1  0  0  0  0
  4  5  1  0  0  0  0
  5  6  1  0  0  0  0
  5 18  1  0  0  0  0
  6  7  1  0  0  0  0
  7  8  1  0  0  0  0
  8  9  4  0  0  0  0
  8 17  4  0  0  0  0
  9 10  1  0  0  0  0
  9 14  4  0  0  0  0
 10 11  1  0  0  0  0
 11 12  4  0  0  0  0
 12 13  4  0  0  0  0
 14 15  4  0  0  0  0
 15 16  4  0  0  0  0
 16 17  4  0  0  0  0
M  END
>  <Name_Molregno>
336546

>  <DOPAMINE D1>
6.61

>  <DOPAMINE D2>
6.37

>  <DOPAMINE D4>
5.78

>  <DOPAMINE D5>
6.45

$$$$
336559
  Marvin  02231216192D 0   1.00000     0.00000     0

 18 20  0  0  0  0  0  0  0  0999 V2000
   -0.0147   -0.9409    0.0000 S   0  0  0  0  0  0  0  0  0
    0.5726   -0.3615    0.0000 C   0  0  0  0  0  0  0  0  0
    0.5350    0.4627    0.0000 C   0  0  0  0  0  0  0  0  0
    1.2299    0.9073    0.0000 C   0  0  0  0  0  0  0  0  0
    1.9624    0.5278    0.0000 N   0  0  0  0  0  0  0  0  0
    2.6574    0.9724    0.0000 C   0  0  0  0  0  0  0  0  0
    3.3899    0.5929    0.0000 C   0  0  0  0  0  0  0  0  0
    3.4275   -0.2312    0.0000 C   0  0  0  0  0  0  0  0  0
    2.7326   -0.6758    0.0000 C   0  0  0  0  0  0  0  0  0
    2.0000   -0.2963    0.0000 C   0  0  0  0  0  0  0  0  0
    1.3051   -0.7410    0.0000 C   0  0  0  0  0  0  0  0  0
    1.1705   -1.5549    0.0000 C   0  0  0  0  0  0  0  0  0
    0.3548   -1.6785    0.0000 C   0  0  0  0  0  0  0  0  0
    2.7702   -1.5000    0.0000 C   0  0  0  0  0  0  0  0  0
    3.5027   -1.8795    0.0000 C   0  0  0  0  0  0  0  0  0
    4.1976   -1.4349    0.0000 C   0  0  0  0  0  0  0  0  0
    4.1600   -0.6107    0.0000 C   0  0  0  0  0  0  0  0  0
    1.5084   -0.1610    0.0000 C   0  0  0  0  0  0  0  0  0
  1  2  4  0  0  0  0
  1 13  4  0  0  0  0
  2  3  1  0  0  0  0
  2 11  4  0  0  0  0
  3  4  1  0  0  0  0
  4  5  1  0  0  0  0
  5  6  1  0  0  0  0
  5 18  1  0  0  0  0
  6  7  1  0  0  0  0
  7  8  1  0  0  0  0
  8  9  4  0  0  0  0
  8 17  4  0  0  0  0
  9 10  1  0  0  0  0
  9 14  4  0  0  0  0
 10 11  1  0  0  0  0
 11 12  4  0  0  0  0
 12 13  4  0  0  0  0
 14 15  4  0  0  0  0
 15 16  4  0  0  0  0
 16 17  4  0  0  0  0
M  END
>  <Name_Molregno>
336559

>  <DOPAMINE D1>
7.32

>  <DOPAMINE D2>
6.87

>  <DOPAMINE D4>
6.52

>  <DOPAMINE D5>
7.28

$$$$
336646
  Marvin  02231216192D 0   1.00000     0.00000     0

 19 21  0  0  0  0  0  0  0  0999 V2000
    0.0255   -0.6767    0.0000 N   0  0  0  0  0  0  0  0  0
    0.7400   -0.2642    0.0000 C   0  0  0  0  0  0  0  0  0
    1.4545   -0.6767    0.0000 C   0  0  0  0  0  0  0  0  0
    1.4545   -1.5017    0.0000 C   0  0  0  0  0  0  0  0  0
    0.7400   -1.9142    0.0000 C   0  0  0  0  0  0  0  0  0
    0.0255   -1.5017    0.0000 C   0  0  0  0  0  0  0  0  0
   -0.6889   -1.9142    0.0000 C   0  0  0  0  0  0  0  0  0
   -1.4034   -1.5017    0.0000 C   0  0  0  0  0  0  0  0  0
   -1.4034   -0.6767    0.0000 C   0  0  0  0  0  0  0  0  0
   -0.6889   -0.2642    0.0000 C   0  0  0  0  0  0  0  0  0
   -2.1179   -1.9142    0.0000 C   0  0  0  0  0  0  0  0  0
   -2.1179   -2.7392    0.0000 C   0  0  0  0  0  0  0  0  0
   -1.4034   -3.1517    0.0000 C   0  0  0  0  0  0  0  0  0
   -0.6889   -2.7392    0.0000 C   0  0  0  0  0  0  0  0  0
    0.7400   -2.7392    0.0000 C   0  0  0  0  0  0  0  0  0
    1.4545   -3.1517    0.0000 C   0  0  0  0  0  0  0  0  0
    2.1689   -2.7392    0.0000 C   0  0  0  0  0  0  0  0  0
    2.1689   -1.9142    0.0000 C   0  0  0  0  0  0  0  0  0
   -0.4594   -1.3441    0.0000 C   0  0  0  0  0  0  0  0  0
  1  2  1  0  0  0  0
  1 10  1  0  0  0  0
  1 19  1  0  0  0  0
  2  3  1  0  0  0  0
  3  4  1  0  0  0  0
  4  5  4  0  0  0  0
  4 18  4  0  0  0  0
  5  6  1  0  0  0  0
  5 15  4  0  0  0  0
  6  7  1  0  0  0  0
  7  8  4  0  0  0  0
  7 14  4  0  0  0  0
  8  9  1  0  0  0  0
  8 11  4  0  0  0  0
  9 10  1  0  0  0  0
 11 12  4  0  0  0  0
 12 13  4  0  0  0  0
 13 14  4  0  0  0  0
 15 16  4  0  0  0  0
 16 17  4  0  0  0  0
 17 18  4  0  0  0  0
M  END
>  <Name_Molregno>
336646

>  <DOPAMINE D1>
8.14

>  <DOPAMINE D2>
7.45

>  <DOPAMINE D3>
7.3

>  <DOPAMINE D4>
6.87

>  <DOPAMINE D5>
8.14

$$$$
336666
  Marvin  02231216192D 0   1.00000     0.00000     0

 20 22  0  0  0  0  0  0  0  0999 V2000
    0.3810   -0.8391    0.0000 O   0  0  0  0  0  0  0  0  0
    1.0955   -0.4266    0.0000 C   0  0  0  0  0  0  0  0  0
    1.0955    0.3984    0.0000 C   0  0  0  0  0  0  0  0  0
    1.8099    0.8109    0.0000 C   0  0  0  0  0  0  0  0  0
    1.8099    1.6359    0.0000 C   0  0  0  0  0  0  0  0  0
    2.5244    2.0484    0.0000 C   0  0  0  0  0  0  0  0  0
    3.2389    1.6359    0.0000 N   0  0  0  0  0  0  0  0  0
    3.9533    2.0484    0.0000 C   0  0  0  0  0  0  0  0  0
    4.6678    1.6359    0.0000 C   0  0  0  0  0  0  0  0  0
    4.6678    0.8109    0.0000 C   0  0  0  0  0  0  0  0  0
    3.9533    0.3984    0.0000 C   0  0  0  0  0  0  0  0  0
    3.2389    0.8109    0.0000 C   0  0  0  0  0  0  0  0  0
    2.5244    0.3984    0.0000 C   0  0  0  0  0  0  0  0  0
    2.5244   -0.4266    0.0000 C   0  0  0  0  0  0  0  0  0
    1.8099   -0.8391    0.0000 C   0  0  0  0  0  0  0  0  0
    3.9533   -0.4266    0.0000 C   0  0  0  0  0  0  0  0  0
    4.6678   -0.8391    0.0000 C   0  0  0  0  0  0  0  0  0
    5.3823   -0.4266    0.0000 C   0  0  0  0  0  0  0  0  0
    5.3823    0.3984    0.0000 C   0  0  0  0  0  0  0  0  0
    2.7539    0.9685    0.0000 C   0  0  0  0  0  0  0  0  0
  1  2  1  0  0  0  0
  2  3  4  0  0  0  0
  2 15  4  0  0  0  0
  3  4  4  0  0  0  0
  4  5  1  0  0  0  0
  4 13  4  0  0  0  0
  5  6  1  0  0  0  0
  6  7  1  0  0  0  0
  7  8  1  0  0  0  0
  7 20  1  0  0  0  0
  8  9  1  0  0  0  0
  9 10  1  0  0  0  0
 10 11  4  0  0  0  0
 10 19  4  0  0  0  0
 11 12  1  0  0  0  0
 11 16  4  0  0  0  0
 12 13  1  0  0  0  0
 13 14  4  0  0  0  0
 14 15  4  0  0  0  0
 16 17  4  0  0  0  0
 17 18  4  0  0  0  0
 18 19  4  0  0  0  0
M  END
>  <Name_Molregno>
336666

>  <DOPAMINE D1>
9.16

>  <DOPAMINE D2>
7.68

>  <DOPAMINE D3>
7.31

>  <DOPAMINE D4>
7.95

>  <DOPAMINE D5>
8.81

$$$$
341495
  Marvin  02231216192D 0   1.00000     0.00000     0

 21 23  0  0  0  0  0  0  0  0999 V2000
   -5.4665   -0.7767    0.0000 O   0  0  0  0  0  0  0  0  0
   -5.4665   -1.6017    0.0000 C   0  0  0  0  0  0  0  0  0
   -4.7520   -0.3642    0.0000 C   0  0  0  0  0  0  0  0  0
   -4.7520    0.4608    0.0000 C   0  0  0  0  0  0  0  0  0
   -4.0375    0.8733    0.0000 C   0  0  0  0  0  0  0  0  0
   -4.0375    1.6983    0.0000 C   0  0  0  0  0  0  0  0  0
   -3.3231    2.1108    0.0000 C   0  0  0  0  0  0  0  0  0
   -2.6086    1.6983    0.0000 N   0  0  0  0  0  0  0  0  0
   -1.8941    2.1108    0.0000 C   0  0  0  0  0  0  0  0  0
   -1.1796    1.6983    0.0000 C   0  0  0  0  0  0  0  0  0
   -1.1796    0.8733    0.0000 C   0  0  0  0  0  0  0  0  0
   -1.8941    0.4608    0.0000 C   0  0  0  0  0  0  0  0  0
   -2.6086    0.8733    0.0000 C   0  0  0  0  0  0  0  0  0
   -3.3231    0.4608    0.0000 C   0  0  0  0  0  0  0  0  0
   -3.3231   -0.3642    0.0000 C   0  0  0  0  0  0  0  0  0
   -4.0375   -0.7767    0.0000 C   0  0  0  0  0  0  0  0  0
   -1.8941   -0.3642    0.0000 C   0  0  0  0  0  0  0  0  0
   -1.1796   -0.7767    0.0000 C   0  0  0  0  0  0  0  0  0
   -0.4652   -0.3642    0.0000 C   0  0  0  0  0  0  0  0  0
   -0.4652    0.4608    0.0000 C   0  0  0  0  0  0  0  0  0
   -3.0935    1.0309    0.0000 C   0  0  0  0  0  0  0  0  0
  1  2  1  0  0  0  0
  1  3  1  0  0  0  0
  3  4  4  0  0  0  0
  3 16  4  0  0  0  0
  4  5  4  0  0  0  0
  5  6  1  0  0  0  0
  5 14  4  0  0  0  0
  6  7  1  0  0  0  0
  7  8  1  0  0  0  0
  8  9  1  0  0  0  0
  8 21  1  0  0  0  0
  9 10  1  0  0  0  0
 10 11  1  0  0  0  0
 11 12  4  0  0  0  0
 11 20  4  0  0  0  0
 12 13  1  0  0  0  0
 12 17  4  0  0  0  0
 13 14  1  0  0  0  0
 14 15  4  0  0  0  0
 15 16  4  0  0  0  0
 17 18  4  0  0  0  0
 18 19  4  0  0  0  0
 19 20  4  0  0  0  0
M  END
>  <Name_Molregno>
341495

>  <DOPAMINE D1>
7.58

>  <DOPAMINE D2>
8.16

>  <DOPAMINE D3>
7.12

>  <DOPAMINE D4>
7.36

>  <DOPAMINE D5>
7.53

$$$$
341497
  Marvin  02231216192D 0   1.00000     0.00000     0

 21 23  0  0  0  0  0  0  0  0999 V2000
   -4.7162   -0.5690    0.0000 Cl  0  0  0  0  0  0  0  0  0
   -4.0017   -0.9815    0.0000 C   0  0  0  0  0  0  0  0  0
   -3.2872   -0.5690    0.0000 C   0  0  0  0  0  0  0  0  0
   -3.2872    0.2560    0.0000 C   0  0  0  0  0  0  0  0  0
   -2.5727    0.6685    0.0000 C   0  0  0  0  0  0  0  0  0
   -1.8583    0.2560    0.0000 N   0  0  0  0  0  0  0  0  0
   -1.1438    0.6685    0.0000 C   0  0  0  0  0  0  0  0  0
   -0.4293    0.2560    0.0000 C   0  0  0  0  0  0  0  0  0
   -0.4293   -0.5690    0.0000 C   0  0  0  0  0  0  0  0  0
   -1.1438   -0.9815    0.0000 C   0  0  0  0  0  0  0  0  0
   -1.8583   -0.5690    0.0000 C   0  0  0  0  0  0  0  0  0
   -2.5727   -0.9815    0.0000 C   0  0  0  0  0  0  0  0  0
   -2.5727   -1.8065    0.0000 C   0  0  0  0  0  0  0  0  0
   -3.2872   -2.2190    0.0000 C   0  0  0  0  0  0  0  0  0
   -4.0017   -1.8065    0.0000 C   0  0  0  0  0  0  0  0  0
   -4.7162   -2.2190    0.0000 O   0  0  0  0  0  0  0  0  0
   -1.1438   -1.8065    0.0000 C   0  0  0  0  0  0  0  0  0
   -0.4293   -2.2190    0.0000 C   0  0  0  0  0  0  0  0  0
    0.2851   -1.8065    0.0000 C   0  0  0  0  0  0  0  0  0
    0.2851   -0.9815    0.0000 C   0  0  0  0  0  0  0  0  0
   -2.3432   -0.4114    0.0000 C   0  0  0  0  0  0  0  0  0
  1  2  1  0  0  0  0
  2  3  4  0  0  0  0
  2 15  4  0  0  0  0
  3  4  1  0  0  0  0
  3 12  4  0  0  0  0
  4  5  1  0  0  0  0
  5  6  1  0  0  0  0
  6  7  1  0  0  0  0
  6 21  1  0  0  0  0
  7  8  1  0  0  0  0
  8  9  1  0  0  0  0
  9 10  4  0  0  0  0
  9 20  4  0  0  0  0
 10 11  1  0  0  0  0
 10 17  4  0  0  0  0
 11 12  1  0  0  0  0
 12 13  4  0  0  0  0
 13 14  4  0  0  0  0
 14 15  4  0  0  0  0
 15 16  1  0  0  0  0
 17 18  4  0  0  0  0
 18 19  4  0  0  0  0
 19 20  4  0  0  0  0
M  END
>  <Name_Molregno>
341497

>  <DOPAMINE D1>
9.17

>  <DOPAMINE D2>
8.35

>  <DOPAMINE D3>
7.61

>  <DOPAMINE D4>
7.73

>  <DOPAMINE D5>
10.26

$$$$
342514
  Marvin  02231216192D 0   1.00000     0.00000     0

 20 23  0  0  1  0  0  0  0  0999 V2000
   -3.9747   -0.6378    0.0000 O   0  0  0  0  0  0  0  0  0
   -4.5268   -1.2508    0.0000 C   0  0  0  0  0  0  0  0  0
   -5.3338   -1.0793    0.0000 C   0  0  0  0  0  0  0  0  0
   -6.1184   -1.3343    0.0000 C   0  0  0  0  0  0  0  0  0
   -5.9468   -0.5273    0.0000 C   0  0  0  0  0  0  0  0  0
   -3.1678   -0.8093    0.0000 C   0  0  0  0  0  0  0  0  0
   -2.6157   -0.1962    0.0000 C   0  0  0  0  0  0  0  0  0
   -1.8088   -0.3677    0.0000 N   0  0  0  0  0  0  0  0  0
   -1.2567    0.2454    0.0000 C   0  0  0  0  0  0  0  0  0
   -0.4317    0.2454    0.0000 N   0  0  0  0  0  0  0  0  0
   -0.1768    1.0300    0.0000 C   0  0  0  0  0  0  0  0  0
   -0.8442    1.5149    0.0000 C   0  0  0  0  0  0  0  0  0
   -1.5117    1.0300    0.0000 C   0  0  0  0  0  0  0  0  0
   -2.3187    1.2015    0.0000 C   0  0  0  0  0  0  0  0  0
   -2.8707    0.5884    0.0000 C   0  0  0  0  0  0  0  0  0
    0.6302    1.2015    0.0000 C   0  0  0  0  0  0  0  0  0
    1.1822    0.5884    0.0000 N   0  0  0  0  0  0  0  0  0
    0.9273   -0.1962    0.0000 C   0  0  0  0  0  0  0  0  0
    0.1203   -0.3677    0.0000 C   0  0  0  0  0  0  0  0  0
   -0.1346   -1.1523    0.0000 C   0  0  0  0  0  0  0  0  0
  1  2  1  0  0  0  0
  1  6  1  0  0  0  0
  2  3  1  0  0  0  0
  3  4  1  0  0  0  0
  3  5  1  0  0  0  0
  4  5  1  0  0  0  0
  6  7  1  0  0  0  0
  7  8  4  0  0  0  0
  7 15  4  0  0  0  0
  8  9  4  0  0  0  0
  9 10  1  0  0  0  0
  9 13  4  0  0  0  0
 10 11  1  0  0  0  0
 10 19  1  0  0  0  0
 11 12  1  0  0  0  0
 11 16  1  0  0  0  0
 12 13  1  0  0  0  0
 13 14  4  0  0  0  0
 14 15  4  0  0  0  0
 16 17  1  0  0  0  0
 17 18  1  0  0  0  0
 18 19  1  0  0  0  0
 19 20  1  0  0  0  0
M  END
>  <Name_Molregno>
342514

>  <5-HT1A>
6.14

>  <5-HT1B>
6.14

>  <5-HT1D>
6.44

>  <5-HT2A>
7.13

>  <5-HT2C>
8.44

>  <5-HT3>
6

>  <5-HT5>
6.14

>  <5-HT6>
6.14

>  <5-HT7>
6

>  <Beta-1>
6

>  <DOPAMINE D4>
6.14

>  <Dopamine transporter>
6

>  <Norepinephrine transporter>
6

>  <Serotonin transporter>
6

$$$$
344371
  Marvin  02231216192D 0   1.00000     0.00000     0

 27 29  0  0  0  0  0  0  0  0999 V2000
   -8.3424    3.5017    0.0000 O   0  0  0  0  0  0  0  0  0
   -9.0569    3.9142    0.0000 C   0  0  0  0  0  0  0  0  0
   -8.3424    2.6767    0.0000 C   0  0  0  0  0  0  0  0  0
   -7.6279    2.2642    0.0000 C   0  0  0  0  0  0  0  0  0
   -7.6279    1.4392    0.0000 C   0  0  0  0  0  0  0  0  0
   -6.9134    1.0267    0.0000 N   0  0  0  0  0  0  0  0  0
   -6.1990    1.4392    0.0000 C   0  0  0  0  0  0  0  0  0
   -5.4845    1.0267    0.0000 C   0  0  0  0  0  0  0  0  0
   -5.4845    0.2017    0.0000 N   0  0  0  0  0  0  0  0  0
   -6.1990   -0.2108    0.0000 C   0  0  0  0  0  0  0  0  0
   -6.9134    0.2017    0.0000 C   0  0  0  0  0  0  0  0  0
   -4.7700   -0.2108    0.0000 C   0  0  0  0  0  0  0  0  0
   -4.0556    0.2017    0.0000 C   0  0  0  0  0  0  0  0  0
   -3.3411   -0.2108    0.0000 C   0  0  0  0  0  0  0  0  0
   -2.6266    0.2017    0.0000 C   0  0  0  0  0  0  0  0  0
   -1.9121   -0.2108    0.0000 N   0  0  0  0  0  0  0  0  0
   -1.1977    0.2017    0.0000 N   0  0  0  0  0  0  0  0  0
   -0.4832   -0.2108    0.0000 C   0  0  0  0  0  0  0  0  0
   -0.4832   -1.0358    0.0000 C   0  0  0  0  0  0  0  0  0
    0.2313   -1.4483    0.0000 O   0  0  0  0  0  0  0  0  0
   -1.1977   -1.4483    0.0000 N   0  0  0  0  0  0  0  0  0
   -1.1977   -2.2733    0.0000 C   0  0  0  0  0  0  0  0  0
   -1.9121   -1.0358    0.0000 C   0  0  0  0  0  0  0  0  0
   -2.6266   -1.4483    0.0000 O   0  0  0  0  0  0  0  0  0
   -8.3424    1.0267    0.0000 C   0  0  0  0  0  0  0  0  0
   -9.0569    1.4392    0.0000 C   0  0  0  0  0  0  0  0  0
   -9.0569    2.2642    0.0000 C   0  0  0  0  0  0  0  0  0
  1  2  1  0  0  0  0
  1  3  1  0  0  0  0
  3  4  4  0  0  0  0
  3 27  4  0  0  0  0
  4  5  4  0  0  0  0
  5  6  1  0  0  0  0
  5 25  4  0  0  0  0
  6  7  1  0  0  0  0
  6 11  1  0  0  0  0
  7  8  1  0  0  0  0
  8  9  1  0  0  0  0
  9 10  1  0  0  0  0
  9 12  1  0  0  0  0
 10 11  1  0  0  0  0
 12 13  1  0  0  0  0
 13 14  1  0  0  0  0
 14 15  1  0  0  0  0
 15 16  1  0  0  0  0
 16 17  1  0  0  0  0
 16 23  1  0  0  0  0
 17 18  2  0  0  0  0
 18 19  1  0  0  0  0
 19 20  2  0  0  0  0
 19 21  1  0  0  0  0
 21 22  1  0  0  0  0
 21 23  1  0  0  0  0
 23 24  2  0  0  0  0
 25 26  4  0  0  0  0
 26 27  4  0  0  0  0
M  END
>  <Name_Molregno>
344371

>  <5-HT1A>
8.96

>  <5-HT1B>
6.64

>  <5-HT1E>
5

>  <5-HT2A>
5.68

>  <5-HT3>
5

>  <5-HT5>
5

>  <5-HT6>
5

>  <5-HT7>
6.48

>  <Alpha-1A>
6.38

>  <Alpha-1B>
6.42

>  <Alpha-2A>
6.6

>  <Alpha-2C>
6.96

>  <DOPAMINE D2>
5.59

>  <DOPAMINE D3>
5

>  <DOPAMINE D4>
5

>  <DOPAMINE D5>
5

>  <Dopamine transporter>
5

>  <HISTAMINE H1>
6.08

>  <HISTAMINE H2>
5.67

>  <HISTAMINE H3>
5

>  <HISTAMINE H4>
5

>  <Norepinephrine transporter>
5

>  <Serotonin transporter>
5

$$$$
348204
  Marvin  02231216192D 0   1.00000     0.00000     0

 28 31  0  0  1  0  0  0  0  0999 V2000
   10.2950   -1.6307    0.0000 Cl  0  0  0  0  0  0  0  0  0
    9.4759   -1.5325    0.0000 C   0  0  0  0  0  0  0  0  0
    8.9812   -2.1928    0.0000 C   0  0  0  0  0  0  0  0  0
    8.1621   -2.0945    0.0000 C   0  0  0  0  0  0  0  0  0
    7.8376   -1.3360    0.0000 C   0  0  0  0  0  0  0  0  0
    8.3323   -0.6758    0.0000 C   0  0  0  0  0  0  0  0  0
    9.1514   -0.7740    0.0000 C   0  0  0  0  0  0  0  0  0
    7.0185   -1.2378    0.0000 C   0  0  0  0  0  0  0  0  0
    6.6925   -1.9956    0.0000 O   0  0  0  0  0  0  0  0  0
    6.8803   -0.4204    0.0000 C   0  0  0  0  0  0  0  0  0
    5.9515   -0.4359    0.0000 C   0  0  0  0  0  0  0  0  0
    5.3909    0.0040    0.0000 N   0  0  0  0  0  0  0  0  0
    5.5306   -0.8091    0.0000 C   0  0  0  0  0  0  0  0  0
    6.5023   -0.8091    0.0000 C   0  0  0  0  0  0  0  0  0
    5.0107   -1.5214    0.0000 C   0  0  0  0  0  0  0  0  0
    5.6310   -1.1445    0.0000 C   0  0  0  0  0  0  0  0  0
    4.9683    0.7126    0.0000 C   0  0  0  0  0  0  0  0  0
    4.1434    0.7008    0.0000 C   0  0  0  0  0  0  0  0  0
    3.7208    1.4094    0.0000 C   0  0  0  0  0  0  0  0  0
    2.8958    1.3977    0.0000 C   0  0  0  0  0  0  0  0  0
    2.4935    0.6774    0.0000 O   0  0  0  0  0  0  0  0  0
    2.4732    2.1062    0.0000 C   0  0  0  0  0  0  0  0  0
    1.6483    2.0945    0.0000 C   0  0  0  0  0  0  0  0  0
    1.2257    2.8030    0.0000 C   0  0  0  0  0  0  0  0  0
    1.6280    3.5233    0.0000 C   0  0  0  0  0  0  0  0  0
    1.2054    4.2318    0.0000 F   0  0  0  0  0  0  0  0  0
    2.4529    3.5350    0.0000 C   0  0  0  0  0  0  0  0  0
    2.8755    2.8265    0.0000 C   0  0  0  0  0  0  0  0  0
  1  2  1  0  0  0  0
  2  3  4  0  0  0  0
  2  7  4  0  0  0  0
  3  4  4  0  0  0  0
  4  5  4  0  0  0  0
  5  6  4  0  0  0  0
  5  8  1  0  0  0  0
  6  7  4  0  0  0  0
  8  9  1  0  0  0  0
  8 10  1  0  0  0  0
  8 14  1  0  0  0  0
 10 11  1  0  0  0  0
 11 12  1  0  0  0  0
 11 16  1  0  0  0  0
 12 13  1  0  0  0  0
 12 17  1  0  0  0  0
 13 14  1  0  0  0  0
 13 15  1  0  0  0  0
 15 16  1  0  0  0  0
 17 18  1  0  0  0  0
 18 19  1  0  0  0  0
 19 20  1  0  0  0  0
 20 21  2  0  0  0  0
 20 22  1  0  0  0  0
 22 23  4  0  0  0  0
 22 28  4  0  0  0  0
 23 24  4  0  0  0  0
 24 25  4  0  0  0  0
 25 26  1  0  0  0  0
 25 27  4  0  0  0  0
 27 28  4  0  0  0  0
M  END
>  <Name_Molregno>
348204

>  <5-HT1A>
7.56

>  <5-HT2A>
7.51

>  <5-HT2C>
6.06

>  <Alpha-1A>
7.41

>  <Alpha-1B>
7.37

>  <Alpha-2A>
5.55

>  <Alpha-2B>
6.29

>  <Alpha-2C>
6.85

>  <DOPAMINE D2>
8.8

>  <DOPAMINE D3>
8.29

>  <DOPAMINE D4>
8.28

>  <HISTAMINE H1>
5.06

$$$$
349093
  Marvin  02231216192D 0   1.00000     0.00000     0

 37 41  0  0  0  0  0  0  0  0999 V2000
  -10.5423   -1.1396    0.0000 O   0  0  0  0  0  0  0  0  0
  -11.1256   -1.7229    0.0000 C   0  0  0  0  0  0  0  0  0
  -10.7558   -0.3427    0.0000 C   0  0  0  0  0  0  0  0  0
  -11.5527   -0.1292    0.0000 C   0  0  0  0  0  0  0  0  0
  -11.7662    0.6677    0.0000 C   0  0  0  0  0  0  0  0  0
  -11.1828    1.2511    0.0000 C   0  0  0  0  0  0  0  0  0
  -10.3859    1.0376    0.0000 C   0  0  0  0  0  0  0  0  0
  -10.1724    0.2407    0.0000 C   0  0  0  0  0  0  0  0  0
   -9.3755    0.0271    0.0000 N   0  0  0  0  0  0  0  0  0
   -8.7922    0.6105    0.0000 C   0  0  0  0  0  0  0  0  0
   -7.9953    0.3970    0.0000 C   0  0  0  0  0  0  0  0  0
   -7.7818   -0.3999    0.0000 N   0  0  0  0  0  0  0  0  0
   -8.3651   -0.9833    0.0000 C   0  0  0  0  0  0  0  0  0
   -9.1620   -0.7697    0.0000 C   0  0  0  0  0  0  0  0  0
   -6.9849   -0.6134    0.0000 C   0  0  0  0  0  0  0  0  0
   -6.4015   -0.0301    0.0000 C   0  0  0  0  0  0  0  0  0
   -5.6046   -0.2436    0.0000 C   0  0  0  0  0  0  0  0  0
   -5.0213    0.3398    0.0000 C   0  0  0  0  0  0  0  0  0
   -4.2244    0.1262    0.0000 N   0  0  0  0  0  0  0  0  0
   -3.6410    0.7096    0.0000 C   0  0  0  0  0  0  0  0  0
   -3.8545    1.5065    0.0000 O   0  0  0  0  0  0  0  0  0
   -2.8441    0.4961    0.0000 C   0  0  0  0  0  0  0  0  0
   -2.4316    1.2105    0.0000 C   0  0  0  0  0  0  0  0  0
   -1.7171    1.6230    0.0000 C   0  0  0  0  0  0  0  0  0
   -0.8921    1.6230    0.0000 C   0  0  0  0  0  0  0  0  0
   -0.1777    1.2105    0.0000 C   0  0  0  0  0  0  0  0  0
    0.2348    0.4961    0.0000 C   0  0  0  0  0  0  0  0  0
    0.2348   -0.3289    0.0000 C   0  0  0  0  0  0  0  0  0
   -0.1777   -1.0434    0.0000 C   0  0  0  0  0  0  0  0  0
   -0.8921   -1.4559    0.0000 C   0  0  0  0  0  0  0  0  0
   -1.7171   -1.4559    0.0000 C   0  0  0  0  0  0  0  0  0
   -2.4316   -1.0434    0.0000 C   0  0  0  0  0  0  0  0  0
   -2.8441   -0.3289    0.0000 C   0  0  0  0  0  0  0  0  0
   -2.2438   -0.2921    0.0000 C   0  0  0  0  0  0  0  0  0
   -2.2438    0.4592    0.0000 C   0  0  0  0  0  0  0  0  0
   -0.3655   -0.2921    0.0000 C   0  0  0  0  0  0  0  0  0
   -0.3655    0.4592    0.0000 C   0  0  0  0  0  0  0  0  0
  1  2  1  0  0  0  0
  1  3  1  0  0  0  0
  3  4  4  0  0  0  0
  3  8  4  0  0  0  0
  4  5  4  0  0  0  0
  5  6  4  0  0  0  0
  6  7  4  0  0  0  0
  7  8  4  0  0  0  0
  8  9  1  0  0  0  0
  9 10  1  0  0  0  0
  9 14  1  0  0  0  0
 10 11  1  0  0  0  0
 11 12  1  0  0  0  0
 12 13  1  0  0  0  0
 12 15  1  0  0  0  0
 13 14  1  0  0  0  0
 15 16  1  0  0  0  0
 16 17  1  0  0  0  0
 17 18  1  0  0  0  0
 18 19  1  0  0  0  0
 19 20  1  0  0  0  0
 20 21  2  0  0  0  0
 20 22  1  0  0  0  0
 22 23  4  0  0  0  0
 22 33  4  0  0  0  0
 23 24  1  0  0  0  0
 23 35  4  0  0  0  0
 24 25  1  0  0  0  0
 25 26  1  0  0  0  0
 26 27  4  0  0  0  0
 26 37  4  0  0  0  0
 27 28  4  0  0  0  0
 28 29  4  0  0  0  0
 29 30  1  0  0  0  0
 29 36  4  0  0  0  0
 30 31  1  0  0  0  0
 31 32  1  0  0  0  0
 32 33  4  0  0  0  0
 32 34  4  0  0  0  0
 34 35  4  0  0  0  0
 36 37  4  0  0  0  0
M  END
>  <Name_Molregno>
349093

>  <5-HT1A>
7.42

>  <DOPAMINE D1>
6.24

>  <DOPAMINE D2>
7.98

>  <DOPAMINE D3>
9.12

>  <DOPAMINE D4>
8.15

$$$$
349190
  Marvin  02231216192D 0   1.00000     0.00000     0

 26 29  0  0  0  0  0  0  0  0999 V2000
   -5.5675    0.2994    0.0000 O   0  0  0  0  0  0  0  0  0
   -6.2820   -0.1131    0.0000 C   0  0  0  0  0  0  0  0  0
   -5.5675    1.1244    0.0000 C   0  0  0  0  0  0  0  0  0
   -6.2820    1.5369    0.0000 C   0  0  0  0  0  0  0  0  0
   -6.2820    2.3619    0.0000 C   0  0  0  0  0  0  0  0  0
   -5.5675    2.7744    0.0000 C   0  0  0  0  0  0  0  0  0
   -4.8531    2.3619    0.0000 C   0  0  0  0  0  0  0  0  0
   -4.8531    1.5369    0.0000 C   0  0  0  0  0  0  0  0  0
   -4.1386    1.1244    0.0000 N   0  0  0  0  0  0  0  0  0
   -3.4241    1.5369    0.0000 C   0  0  0  0  0  0  0  0  0
   -2.7096    1.1244    0.0000 C   0  0  0  0  0  0  0  0  0
   -2.7096    0.2994    0.0000 N   0  0  0  0  0  0  0  0  0
   -3.4241   -0.1131    0.0000 C   0  0  0  0  0  0  0  0  0
   -4.1386    0.2994    0.0000 C   0  0  0  0  0  0  0  0  0
   -1.9952   -0.1131    0.0000 C   0  0  0  0  0  0  0  0  0
   -1.9952   -0.9381    0.0000 C   0  0  0  0  0  0  0  0  0
   -1.3277   -1.4230    0.0000 C   0  0  0  0  0  0  0  0  0
   -1.5827   -2.2076    0.0000 N   0  0  0  0  0  0  0  0  0
   -2.4077   -2.2076    0.0000 N   0  0  0  0  0  0  0  0  0
   -2.6626   -1.4230    0.0000 C   0  0  0  0  0  0  0  0  0
   -1.0977   -2.8751    0.0000 C   0  0  0  0  0  0  0  0  0
   -0.2773   -2.7888    0.0000 C   0  0  0  0  0  0  0  0  0
    0.2077   -3.4563    0.0000 C   0  0  0  0  0  0  0  0  0
   -0.1279   -4.2099    0.0000 C   0  0  0  0  0  0  0  0  0
   -0.9484   -4.2962    0.0000 C   0  0  0  0  0  0  0  0  0
   -1.4333   -3.6287    0.0000 C   0  0  0  0  0  0  0  0  0
  1  2  1  0  0  0  0
  1  3  1  0  0  0  0
  3  4  4  0  0  0  0
  3  8  4  0  0  0  0
  4  5  4  0  0  0  0
  5  6  4  0  0  0  0
  6  7  4  0  0  0  0
  7  8  4  0  0  0  0
  8  9  1  0  0  0  0
  9 10  1  0  0  0  0
  9 14  1  0  0  0  0
 10 11  1  0  0  0  0
 11 12  1  0  0  0  0
 12 13  1  0  0  0  0
 12 15  1  0  0  0  0
 13 14  1  0  0  0  0
 15 16  1  0  0  0  0
 16 17  4  0  0  0  0
 16 20  4  0  0  0  0
 17 18  4  0  0  0  0
 18 19  4  0  0  0  0
 18 21  1  0  0  0  0
 19 20  4  0  0  0  0
 21 22  4  0  0  0  0
 21 26  4  0  0  0  0
 22 23  4  0  0  0  0
 23 24  4  0  0  0  0
 24 25  4  0  0  0  0
 25 26  4  0  0  0  0
M  END
>  <Name_Molregno>
349190

>  <DOPAMINE D2>
8.03

>  <DOPAMINE D3>
7.46

>  <DOPAMINE D4>
9.55

$$$$
349191
  Marvin  02231216192D 0   1.00000     0.00000     0

 25 28  0  0  0  0  0  0  0  0999 V2000
   -1.0353   -0.8203    0.0000 N   0  0  0  0  0  0  0  0  0
   -1.2902   -1.6049    0.0000 N   0  0  0  0  0  0  0  0  0
   -2.1152   -1.6049    0.0000 C   0  0  0  0  0  0  0  0  0
   -2.3702   -0.8203    0.0000 C   0  0  0  0  0  0  0  0  0
   -3.1548   -0.5654    0.0000 C   0  0  0  0  0  0  0  0  0
   -3.3263    0.2416    0.0000 N   0  0  0  0  0  0  0  0  0
   -4.1109    0.4965    0.0000 C   0  0  0  0  0  0  0  0  0
   -4.2825    1.3035    0.0000 C   0  0  0  0  0  0  0  0  0
   -3.6694    1.8556    0.0000 N   0  0  0  0  0  0  0  0  0
   -2.8848    1.6006    0.0000 C   0  0  0  0  0  0  0  0  0
   -2.7132    0.7936    0.0000 C   0  0  0  0  0  0  0  0  0
   -3.8409    2.6625    0.0000 C   0  0  0  0  0  0  0  0  0
   -4.6255    2.9175    0.0000 C   0  0  0  0  0  0  0  0  0
   -4.7971    3.7244    0.0000 C   0  0  0  0  0  0  0  0  0
   -4.1840    4.2765    0.0000 C   0  0  0  0  0  0  0  0  0
   -3.3993    4.0215    0.0000 C   0  0  0  0  0  0  0  0  0
   -3.2278    3.2146    0.0000 C   0  0  0  0  0  0  0  0  0
   -1.7027   -0.3354    0.0000 C   0  0  0  0  0  0  0  0  0
   -1.7027    0.4896    0.0000 C   0  0  0  0  0  0  0  0  0
   -0.8053   -2.2724    0.0000 C   0  0  0  0  0  0  0  0  0
    0.0152   -2.1861    0.0000 C   0  0  0  0  0  0  0  0  0
    0.5001   -2.8536    0.0000 C   0  0  0  0  0  0  0  0  0
    0.1645   -3.6072    0.0000 C   0  0  0  0  0  0  0  0  0
   -0.6559   -3.6935    0.0000 C   0  0  0  0  0  0  0  0  0
   -1.1409   -3.0260    0.0000 C   0  0  0  0  0  0  0  0  0
  1  2  4  0  0  0  0
  1 18  4  0  0  0  0
  2  3  4  0  0  0  0
  2 20  1  0  0  0  0
  3  4  4  0  0  0  0
  4  5  1  0  0  0  0
  4 18  4  0  0  0  0
  5  6  1  0  0  0  0
  6  7  1  0  0  0  0
  6 11  1  0  0  0  0
  7  8  1  0  0  0  0
  8  9  1  0  0  0  0
  9 10  1  0  0  0  0
  9 12  1  0  0  0  0
 10 11  1  0  0  0  0
 12 13  4  0  0  0  0
 12 17  4  0  0  0  0
 13 14  4  0  0  0  0
 14 15  4  0  0  0  0
 15 16  4  0  0  0  0
 16 17  4  0  0  0  0
 18 19  1  0  0  0  0
 20 21  4  0  0  0  0
 20 25  4  0  0  0  0
 21 22  4  0  0  0  0
 22 23  4  0  0  0  0
 23 24  4  0  0  0  0
 24 25  4  0  0  0  0
M  END
>  <Name_Molregno>
349191

>  <DOPAMINE D2>
7.22

>  <DOPAMINE D3>
6.44

>  <DOPAMINE D4>
9

$$$$
349222
  Marvin  02231216192D 0   1.00000     0.00000     0

 24 27  0  0  0  0  0  0  0  0999 V2000
    0.7533    1.9224    0.0000 N   0  0  0  0  0  0  0  0  0
    0.0388    2.3349    0.0000 C   0  0  0  0  0  0  0  0  0
    0.0388    3.1599    0.0000 C   0  0  0  0  0  0  0  0  0
    0.7533    3.5724    0.0000 C   0  0  0  0  0  0  0  0  0
    1.4678    3.1599    0.0000 N   0  0  0  0  0  0  0  0  0
    1.4678    2.3349    0.0000 C   0  0  0  0  0  0  0  0  0
    2.1822    1.9224    0.0000 N   0  0  0  0  0  0  0  0  0
    2.8967    2.3349    0.0000 C   0  0  0  0  0  0  0  0  0
    3.6112    1.9224    0.0000 C   0  0  0  0  0  0  0  0  0
    3.6112    1.0974    0.0000 N   0  0  0  0  0  0  0  0  0
    2.8967    0.6849    0.0000 C   0  0  0  0  0  0  0  0  0
    2.1822    1.0974    0.0000 C   0  0  0  0  0  0  0  0  0
    4.3257    0.6849    0.0000 C   0  0  0  0  0  0  0  0  0
    4.3257   -0.1401    0.0000 C   0  0  0  0  0  0  0  0  0
    4.9931   -0.6250    0.0000 C   0  0  0  0  0  0  0  0  0
    4.7382   -1.4097    0.0000 N   0  0  0  0  0  0  0  0  0
    3.9132   -1.4097    0.0000 N   0  0  0  0  0  0  0  0  0
    3.6582   -0.6250    0.0000 C   0  0  0  0  0  0  0  0  0
    5.2231   -2.0771    0.0000 C   0  0  0  0  0  0  0  0  0
    6.0436   -1.9909    0.0000 C   0  0  0  0  0  0  0  0  0
    6.5285   -2.6583    0.0000 C   0  0  0  0  0  0  0  0  0
    6.1929   -3.4120    0.0000 C   0  0  0  0  0  0  0  0  0
    5.3724   -3.4982    0.0000 C   0  0  0  0  0  0  0  0  0
    4.8875   -2.8308    0.0000 C   0  0  0  0  0  0  0  0  0
  1  2  4  0  0  0  0
  1  6  4  0  0  0  0
  2  3  4  0  0  0  0
  3  4  4  0  0  0  0
  4  5  4  0  0  0  0
  5  6  4  0  0  0  0
  6  7  1  0  0  0  0
  7  8  1  0  0  0  0
  7 12  1  0  0  0  0
  8  9  1  0  0  0  0
  9 10  1  0  0  0  0
 10 11  1  0  0  0  0
 10 13  1  0  0  0  0
 11 12  1  0  0  0  0
 13 14  1  0  0  0  0
 14 15  4  0  0  0  0
 14 18  4  0  0  0  0
 15 16  4  0  0  0  0
 16 17  4  0  0  0  0
 16 19  1  0  0  0  0
 17 18  4  0  0  0  0
 19 20  4  0  0  0  0
 19 24  4  0  0  0  0
 20 21  4  0  0  0  0
 21 22  4  0  0  0  0
 22 23  4  0  0  0  0
 23 24  4  0  0  0  0
M  END
>  <Name_Molregno>
349222

>  <DOPAMINE D2>
5.03

>  <DOPAMINE D3>
5.54

>  <DOPAMINE D4>
6.51

$$$$
349223
  Marvin  02231216192D 0   1.00000     0.00000     0

 25 28  0  0  0  0  0  0  0  0999 V2000
    1.1179   -2.1939    0.0000 N   0  0  0  0  0  0  0  0  0
    0.2929   -2.1939    0.0000 N   0  0  0  0  0  0  0  0  0
    0.0379   -1.4093    0.0000 C   0  0  0  0  0  0  0  0  0
   -0.7467   -1.1544    0.0000 C   0  0  0  0  0  0  0  0  0
    0.7054   -0.9244    0.0000 C   0  0  0  0  0  0  0  0  0
    1.3728   -1.4093    0.0000 C   0  0  0  0  0  0  0  0  0
    0.7054   -0.0994    0.0000 C   0  0  0  0  0  0  0  0  0
    1.4198    0.3131    0.0000 N   0  0  0  0  0  0  0  0  0
    1.4198    1.1381    0.0000 C   0  0  0  0  0  0  0  0  0
    2.1343    1.5506    0.0000 C   0  0  0  0  0  0  0  0  0
    2.8488    1.1381    0.0000 N   0  0  0  0  0  0  0  0  0
    2.8488    0.3131    0.0000 C   0  0  0  0  0  0  0  0  0
    2.1343   -0.0994    0.0000 C   0  0  0  0  0  0  0  0  0
    3.5633    1.5506    0.0000 C   0  0  0  0  0  0  0  0  0
    3.5633    2.3756    0.0000 C   0  0  0  0  0  0  0  0  0
    4.2777    2.7881    0.0000 C   0  0  0  0  0  0  0  0  0
    4.9922    2.3756    0.0000 C   0  0  0  0  0  0  0  0  0
    4.9922    1.5506    0.0000 C   0  0  0  0  0  0  0  0  0
    4.2777    1.1381    0.0000 C   0  0  0  0  0  0  0  0  0
   -0.1921   -2.8614    0.0000 C   0  0  0  0  0  0  0  0  0
    0.1435   -3.6150    0.0000 C   0  0  0  0  0  0  0  0  0
   -0.3414   -4.2825    0.0000 C   0  0  0  0  0  0  0  0  0
   -1.1619   -4.1962    0.0000 C   0  0  0  0  0  0  0  0  0
   -1.4975   -3.4426    0.0000 C   0  0  0  0  0  0  0  0  0
   -1.0125   -2.7751    0.0000 C   0  0  0  0  0  0  0  0  0
  1  2  4  0  0  0  0
  1  6  4  0  0  0  0
  2  3  4  0  0  0  0
  2 20  1  0  0  0  0
  3  4  1  0  0  0  0
  3  5  4  0  0  0  0
  5  6  4  0  0  0  0
  5  7  1  0  0  0  0
  7  8  1  0  0  0  0
  8  9  1  0  0  0  0
  8 13  1  0  0  0  0
  9 10  1  0  0  0  0
 10 11  1  0  0  0  0
 11 12  1  0  0  0  0
 11 14  1  0  0  0  0
 12 13  1  0  0  0  0
 14 15  4  0  0  0  0
 14 19  4  0  0  0  0
 15 16  4  0  0  0  0
 16 17  4  0  0  0  0
 17 18  4  0  0  0  0
 18 19  4  0  0  0  0
 20 21  4  0  0  0  0
 20 25  4  0  0  0  0
 21 22  4  0  0  0  0
 22 23  4  0  0  0  0
 23 24  4  0  0  0  0
 24 25  4  0  0  0  0
M  END
>  <Name_Molregno>
349223

>  <DOPAMINE D2>
6.33

>  <DOPAMINE D3>
6.49

>  <DOPAMINE D4>
8.28

$$$$
349345
  Marvin  02231216192D 0   1.00000     0.00000     0

 37 41  0  0  0  0  0  0  0  0999 V2000
    1.3466    3.6338    0.0000 Cl  0  0  0  0  0  0  0  0  0
    0.7633    3.0505    0.0000 C   0  0  0  0  0  0  0  0  0
    0.9768    2.2536    0.0000 C   0  0  0  0  0  0  0  0  0
    1.7737    2.0401    0.0000 N   0  0  0  0  0  0  0  0  0
    2.3570    2.6234    0.0000 C   0  0  0  0  0  0  0  0  0
    3.1539    2.4099    0.0000 C   0  0  0  0  0  0  0  0  0
    3.3675    1.6130    0.0000 N   0  0  0  0  0  0  0  0  0
    2.7841    1.0296    0.0000 C   0  0  0  0  0  0  0  0  0
    1.9872    1.2432    0.0000 C   0  0  0  0  0  0  0  0  0
    4.1643    1.3995    0.0000 C   0  0  0  0  0  0  0  0  0
    4.3779    0.6026    0.0000 C   0  0  0  0  0  0  0  0  0
    5.1748    0.3891    0.0000 C   0  0  0  0  0  0  0  0  0
    5.3883   -0.4078    0.0000 C   0  0  0  0  0  0  0  0  0
    6.1852   -0.6213    0.0000 N   0  0  0  0  0  0  0  0  0
    6.3987   -1.4182    0.0000 C   0  0  0  0  0  0  0  0  0
    5.8153   -2.0016    0.0000 O   0  0  0  0  0  0  0  0  0
    7.1956   -1.6318    0.0000 C   0  0  0  0  0  0  0  0  0
    7.6081   -0.9173    0.0000 C   0  0  0  0  0  0  0  0  0
    8.3226   -0.5048    0.0000 C   0  0  0  0  0  0  0  0  0
    9.1476   -0.5048    0.0000 C   0  0  0  0  0  0  0  0  0
    9.8620   -0.9173    0.0000 C   0  0  0  0  0  0  0  0  0
   10.2745   -1.6318    0.0000 C   0  0  0  0  0  0  0  0  0
   10.2745   -2.4568    0.0000 C   0  0  0  0  0  0  0  0  0
    9.8620   -3.1712    0.0000 C   0  0  0  0  0  0  0  0  0
    9.1476   -3.5837    0.0000 C   0  0  0  0  0  0  0  0  0
    8.3226   -3.5837    0.0000 C   0  0  0  0  0  0  0  0  0
    7.6081   -3.1712    0.0000 C   0  0  0  0  0  0  0  0  0
    7.1956   -2.4568    0.0000 C   0  0  0  0  0  0  0  0  0
    7.7959   -2.4199    0.0000 C   0  0  0  0  0  0  0  0  0
    7.7959   -1.6686    0.0000 C   0  0  0  0  0  0  0  0  0
    9.6742   -2.4199    0.0000 C   0  0  0  0  0  0  0  0  0
    9.6742   -1.6686    0.0000 C   0  0  0  0  0  0  0  0  0
    0.3934    1.6702    0.0000 C   0  0  0  0  0  0  0  0  0
   -0.4035    1.8838    0.0000 C   0  0  0  0  0  0  0  0  0
   -0.6170    2.6806    0.0000 C   0  0  0  0  0  0  0  0  0
   -0.0336    3.2640    0.0000 C   0  0  0  0  0  0  0  0  0
   -0.2472    4.0609    0.0000 Cl  0  0  0  0  0  0  0  0  0
  1  2  1  0  0  0  0
  2  3  4  0  0  0  0
  2 36  4  0  0  0  0
  3  4  1  0  0  0  0
  3 33  4  0  0  0  0
  4  5  1  0  0  0  0
  4  9  1  0  0  0  0
  5  6  1  0  0  0  0
  6  7  1  0  0  0  0
  7  8  1  0  0  0  0
  7 10  1  0  0  0  0
  8  9  1  0  0  0  0
 10 11  1  0  0  0  0
 11 12  1  0  0  0  0
 12 13  1  0  0  0  0
 13 14  1  0  0  0  0
 14 15  1  0  0  0  0
 15 16  2  0  0  0  0
 15 17  1  0  0  0  0
 17 18  4  0  0  0  0
 17 28  4  0  0  0  0
 18 19  1  0  0  0  0
 18 30  4  0  0  0  0
 19 20  1  0  0  0  0
 20 21  1  0  0  0  0
 21 22  4  0  0  0  0
 21 32  4  0  0  0  0
 22 23  4  0  0  0  0
 23 24  4  0  0  0  0
 24 25  1  0  0  0  0
 24 31  4  0  0  0  0
 25 26  1  0  0  0  0
 26 27  1  0  0  0  0
 27 28  4  0  0  0  0
 27 29  4  0  0  0  0
 29 30  4  0  0  0  0
 31 32  4  0  0  0  0
 33 34  4  0  0  0  0
 34 35  4  0  0  0  0
 35 36  4  0  0  0  0
 36 37  1  0  0  0  0
M  END
>  <Name_Molregno>
349345

>  <5-HT1A>
6.18

>  <DOPAMINE D1>
5.55

>  <DOPAMINE D2>
6.75

>  <DOPAMINE D3>
8.44

>  <DOPAMINE D4>
6.92

$$$$
349376
  Marvin  02231216192D 0   1.00000     0.00000     0

 41 45  0  0  0  0  0  0  0  0999 V2000
   -2.4600    1.8818    0.0000 O   0  0  0  0  0  0  0  0  0
   -2.7149    1.0971    0.0000 C   0  0  0  0  0  0  0  0  0
   -3.5399    1.0971    0.0000 C   0  0  0  0  0  0  0  0  0
   -3.7949    1.8818    0.0000 C   0  0  0  0  0  0  0  0  0
   -3.1274    2.3667    0.0000 C   0  0  0  0  0  0  0  0  0
   -3.1274    3.1917    0.0000 O   0  0  0  0  0  0  0  0  0
   -3.8419    3.6042    0.0000 C   0  0  0  0  0  0  0  0  0
   -4.5564    3.1917    0.0000 C   0  0  0  0  0  0  0  0  0
   -5.2709    3.6042    0.0000 C   0  0  0  0  0  0  0  0  0
   -5.2709    4.4292    0.0000 C   0  0  0  0  0  0  0  0  0
   -4.5564    4.8417    0.0000 C   0  0  0  0  0  0  0  0  0
   -3.8419    4.4292    0.0000 C   0  0  0  0  0  0  0  0  0
   -3.1274    4.8417    0.0000 C   0  0  0  0  0  0  0  0  0
   -6.0555    4.6841    0.0000 C   0  0  0  0  0  0  0  0  0
   -6.5404    4.0167    0.0000 C   0  0  0  0  0  0  0  0  0
   -6.0555    3.3492    0.0000 C   0  0  0  0  0  0  0  0  0
   -5.8924    2.5405    0.0000 C   0  0  0  0  0  0  0  0  0
   -6.6628    2.7908    0.0000 C   0  0  0  0  0  0  0  0  0
   -2.2300    0.4297    0.0000 C   0  0  0  0  0  0  0  0  0
   -2.5656   -0.3240    0.0000 O   0  0  0  0  0  0  0  0  0
   -1.4095    0.5159    0.0000 N   0  0  0  0  0  0  0  0  0
   -0.9246   -0.1515    0.0000 C   0  0  0  0  0  0  0  0  0
   -0.1041   -0.0653    0.0000 C   0  0  0  0  0  0  0  0  0
    0.2314    0.6884    0.0000 O   0  0  0  0  0  0  0  0  0
    1.0519    0.7746    0.0000 C   0  0  0  0  0  0  0  0  0
    0.3808   -0.7327    0.0000 N   0  0  0  0  0  0  0  0  0
    0.0452   -1.4864    0.0000 C   0  0  0  0  0  0  0  0  0
   -0.7753   -1.5726    0.0000 N   0  0  0  0  0  0  0  0  0
   -1.2602   -0.9052    0.0000 C   0  0  0  0  0  0  0  0  0
   -2.0807   -0.9914    0.0000 O   0  0  0  0  0  0  0  0  0
   -2.4162   -1.7451    0.0000 C   0  0  0  0  0  0  0  0  0
    0.5302   -2.1538    0.0000 N   0  0  0  0  0  0  0  0  0
    1.3506   -2.0676    0.0000 C   0  0  0  0  0  0  0  0  0
    1.8356   -2.7350    0.0000 C   0  0  0  0  0  0  0  0  0
    2.6560   -2.6488    0.0000 C   0  0  0  0  0  0  0  0  0
    3.1410   -3.3162    0.0000 N   0  0  0  0  0  0  0  0  0
    3.9614   -3.2300    0.0000 C   0  0  0  0  0  0  0  0  0
    4.4464   -3.8974    0.0000 C   0  0  0  0  0  0  0  0  0
    4.1108   -4.6511    0.0000 O   0  0  0  0  0  0  0  0  0
    3.2903   -4.7373    0.0000 C   0  0  0  0  0  0  0  0  0
    2.8054   -4.0699    0.0000 C   0  0  0  0  0  0  0  0  0
  1  2  4  0  0  0  0
  1  5  4  0  0  0  0
  2  3  4  0  0  0  0
  2 19  1  0  0  0  0
  3  4  4  0  0  0  0
  4  5  4  0  0  0  0
  5  6  1  0  0  0  0
  6  7  1  0  0  0  0
  7  8  4  0  0  0  0
  7 12  4  0  0  0  0
  8  9  4  0  0  0  0
  9 10  4  0  0  0  0
  9 16  1  0  0  0  0
 10 11  4  0  0  0  0
 10 14  1  0  0  0  0
 11 12  4  0  0  0  0
 12 13  1  0  0  0  0
 14 15  1  0  0  0  0
 15 16  1  0  0  0  0
 16 17  1  0  0  0  0
 16 18  1  0  0  0  0
 19 20  2  0  0  0  0
 19 21  1  0  0  0  0
 21 22  1  0  0  0  0
 22 23  4  0  0  0  0
 22 29  4  0  0  0  0
 23 24  1  0  0  0  0
 23 26  4  0  0  0  0
 24 25  1  0  0  0  0
 26 27  4  0  0  0  0
 27 28  4  0  0  0  0
 27 32  1  0  0  0  0
 28 29  4  0  0  0  0
 29 30  1  0  0  0  0
 30 31  1  0  0  0  0
 32 33  1  0  0  0  0
 33 34  1  0  0  0  0
 34 35  1  0  0  0  0
 35 36  1  0  0  0  0
 36 37  1  0  0  0  0
 36 41  1  0  0  0  0
 37 38  1  0  0  0  0
 38 39  1  0  0  0  0
 39 40  1  0  0  0  0
 40 41  1  0  0  0  0
M  END
>  <Name_Molregno>
349376

>  <5-HT2A>
6.23

>  <5-HT2C>
6.02

>  <5-HT7>
5.76

>  <DOPAMINE D1>
5.79

>  <DOPAMINE D3>
5.93

>  <DOPAMINE D4>
5.6

>  <Dopamine transporter>
5.74

>  <HISTAMINE H2>
5.91

>  <Muscarinic acetylcholine receptor M1>
5.39

>  <Muscarinic acetylcholine receptor M4>
5.43

>  <Norepinephrine transporter>
5.29

>  <Serotonin transporter>
5.84

$$$$
349377
  Marvin  02231216192D 0   1.00000     0.00000     0

 38 42  0  0  0  0  0  0  0  0999 V2000
   -0.1995   -1.5097    0.0000 Cl  0  0  0  0  0  0  0  0  0
    0.3839   -0.9263    0.0000 C   0  0  0  0  0  0  0  0  0
    0.1704   -0.1294    0.0000 C   0  0  0  0  0  0  0  0  0
    0.7537    0.4539    0.0000 C   0  0  0  0  0  0  0  0  0
    1.5506    0.2404    0.0000 C   0  0  0  0  0  0  0  0  0
    1.7642   -0.5565    0.0000 C   0  0  0  0  0  0  0  0  0
    2.5610   -0.7700    0.0000 N   0  0  0  0  0  0  0  0  0
    3.1444   -0.1867    0.0000 C   0  0  0  0  0  0  0  0  0
    3.9413   -0.4002    0.0000 C   0  0  0  0  0  0  0  0  0
    4.1548   -1.1971    0.0000 N   0  0  0  0  0  0  0  0  0
    3.5715   -1.7804    0.0000 C   0  0  0  0  0  0  0  0  0
    2.7746   -1.5669    0.0000 C   0  0  0  0  0  0  0  0  0
    4.9517   -1.4106    0.0000 C   0  0  0  0  0  0  0  0  0
    5.5351   -0.8272    0.0000 C   0  0  0  0  0  0  0  0  0
    6.3320   -1.0408    0.0000 C   0  0  0  0  0  0  0  0  0
    6.9153   -0.4574    0.0000 C   0  0  0  0  0  0  0  0  0
    7.7122   -0.6709    0.0000 N   0  0  0  0  0  0  0  0  0
    8.2956   -0.0876    0.0000 C   0  0  0  0  0  0  0  0  0
    8.0821    0.7093    0.0000 O   0  0  0  0  0  0  0  0  0
    9.0925   -0.3011    0.0000 C   0  0  0  0  0  0  0  0  0
    9.5050    0.4134    0.0000 C   0  0  0  0  0  0  0  0  0
   10.2194    0.8259    0.0000 C   0  0  0  0  0  0  0  0  0
   11.0444    0.8259    0.0000 C   0  0  0  0  0  0  0  0  0
   11.7589    0.4134    0.0000 C   0  0  0  0  0  0  0  0  0
   12.1714   -0.3011    0.0000 C   0  0  0  0  0  0  0  0  0
   12.1714   -1.1261    0.0000 C   0  0  0  0  0  0  0  0  0
   11.7589   -1.8406    0.0000 C   0  0  0  0  0  0  0  0  0
   11.0444   -2.2531    0.0000 C   0  0  0  0  0  0  0  0  0
   10.2194   -2.2531    0.0000 C   0  0  0  0  0  0  0  0  0
    9.5050   -1.8406    0.0000 C   0  0  0  0  0  0  0  0  0
    9.0925   -1.1261    0.0000 C   0  0  0  0  0  0  0  0  0
    9.6928   -1.0892    0.0000 C   0  0  0  0  0  0  0  0  0
    9.6928   -0.3379    0.0000 C   0  0  0  0  0  0  0  0  0
   11.5711   -1.0892    0.0000 C   0  0  0  0  0  0  0  0  0
   11.5711   -0.3379    0.0000 C   0  0  0  0  0  0  0  0  0
    1.1808   -1.1399    0.0000 C   0  0  0  0  0  0  0  0  0
    1.3943   -1.9367    0.0000 O   0  0  0  0  0  0  0  0  0
    2.1912   -2.1503    0.0000 C   0  0  0  0  0  0  0  0  0
  1  2  1  0  0  0  0
  2  3  4  0  0  0  0
  2 36  4  0  0  0  0
  3  4  4  0  0  0  0
  4  5  4  0  0  0  0
  5  6  4  0  0  0  0
  6  7  1  0  0  0  0
  6 36  4  0  0  0  0
  7  8  1  0  0  0  0
  7 12  1  0  0  0  0
  8  9  1  0  0  0  0
  9 10  1  0  0  0  0
 10 11  1  0  0  0  0
 10 13  1  0  0  0  0
 11 12  1  0  0  0  0
 13 14  1  0  0  0  0
 14 15  1  0  0  0  0
 15 16  1  0  0  0  0
 16 17  1  0  0  0  0
 17 18  1  0  0  0  0
 18 19  2  0  0  0  0
 18 20  1  0  0  0  0
 20 21  4  0  0  0  0
 20 31  4  0  0  0  0
 21 22  1  0  0  0  0
 21 33  4  0  0  0  0
 22 23  1  0  0  0  0
 23 24  1  0  0  0  0
 24 25  4  0  0  0  0
 24 35  4  0  0  0  0
 25 26  4  0  0  0  0
 26 27  4  0  0  0  0
 27 28  1  0  0  0  0
 27 34  4  0  0  0  0
 28 29  1  0  0  0  0
 29 30  1  0  0  0  0
 30 31  4  0  0  0  0
 30 32  4  0  0  0  0
 32 33  4  0  0  0  0
 34 35  4  0  0  0  0
 36 37  1  0  0  0  0
 37 38  1  0  0  0  0
M  END
>  <Name_Molregno>
349377

>  <5-HT1A>
7.66

>  <DOPAMINE D1>
6.01

>  <DOPAMINE D2>
7.47

>  <DOPAMINE D3>
9.34

>  <DOPAMINE D4>
7.48

$$$$
349451
  Marvin  02231216192D 0   1.00000     0.00000     0

 24 27  0  0  0  0  0  0  0  0999 V2000
    0.6013   -1.0708    0.0000 N   0  0  0  0  0  0  0  0  0
    0.3463   -1.8554    0.0000 N   0  0  0  0  0  0  0  0  0
   -0.4787   -1.8554    0.0000 N   0  0  0  0  0  0  0  0  0
   -0.7336   -1.0708    0.0000 C   0  0  0  0  0  0  0  0  0
   -0.0662   -0.5859    0.0000 C   0  0  0  0  0  0  0  0  0
   -0.0662    0.2391    0.0000 C   0  0  0  0  0  0  0  0  0
    0.6483    0.6516    0.0000 N   0  0  0  0  0  0  0  0  0
    0.6483    1.4766    0.0000 C   0  0  0  0  0  0  0  0  0
    1.3628    1.8891    0.0000 C   0  0  0  0  0  0  0  0  0
    2.0772    1.4766    0.0000 N   0  0  0  0  0  0  0  0  0
    2.0772    0.6516    0.0000 C   0  0  0  0  0  0  0  0  0
    1.3628    0.2391    0.0000 C   0  0  0  0  0  0  0  0  0
    2.7917    1.8891    0.0000 C   0  0  0  0  0  0  0  0  0
    2.7917    2.7141    0.0000 C   0  0  0  0  0  0  0  0  0
    3.5062    3.1266    0.0000 C   0  0  0  0  0  0  0  0  0
    4.2206    2.7141    0.0000 C   0  0  0  0  0  0  0  0  0
    4.2206    1.8891    0.0000 C   0  0  0  0  0  0  0  0  0
    3.5062    1.4766    0.0000 C   0  0  0  0  0  0  0  0  0
   -0.9636   -2.5228    0.0000 C   0  0  0  0  0  0  0  0  0
   -0.6281   -3.2765    0.0000 C   0  0  0  0  0  0  0  0  0
   -1.1130   -3.9440    0.0000 C   0  0  0  0  0  0  0  0  0
   -1.9335   -3.8577    0.0000 C   0  0  0  0  0  0  0  0  0
   -2.2690   -3.1040    0.0000 C   0  0  0  0  0  0  0  0  0
   -1.7841   -2.4366    0.0000 C   0  0  0  0  0  0  0  0  0
  1  2  4  0  0  0  0
  1  5  4  0  0  0  0
  2  3  4  0  0  0  0
  3  4  4  0  0  0  0
  3 19  1  0  0  0  0
  4  5  4  0  0  0  0
  5  6  1  0  0  0  0
  6  7  1  0  0  0  0
  7  8  1  0  0  0  0
  7 12  1  0  0  0  0
  8  9  1  0  0  0  0
  9 10  1  0  0  0  0
 10 11  1  0  0  0  0
 10 13  1  0  0  0  0
 11 12  1  0  0  0  0
 13 14  4  0  0  0  0
 13 18  4  0  0  0  0
 14 15  4  0  0  0  0
 15 16  4  0  0  0  0
 16 17  4  0  0  0  0
 17 18  4  0  0  0  0
 19 20  4  0  0  0  0
 19 24  4  0  0  0  0
 20 21  4  0  0  0  0
 21 22  4  0  0  0  0
 22 23  4  0  0  0  0
 23 24  4  0  0  0  0
M  END
>  <Name_Molregno>
349451

>  <DOPAMINE D2>
5.95

>  <DOPAMINE D3>
5.92

>  <DOPAMINE D4>
8

$$$$
349452
  Marvin  02231216192D 0   1.00000     0.00000     0

 26 29  0  0  0  0  0  0  0  0999 V2000
   -1.9892    3.5682    0.0000 O   0  0  0  0  0  0  0  0  0
   -1.9892    4.3932    0.0000 C   0  0  0  0  0  0  0  0  0
   -1.2747    3.1557    0.0000 C   0  0  0  0  0  0  0  0  0
   -0.5603    3.5682    0.0000 C   0  0  0  0  0  0  0  0  0
    0.1542    3.1557    0.0000 C   0  0  0  0  0  0  0  0  0
    0.1542    2.3307    0.0000 C   0  0  0  0  0  0  0  0  0
   -0.5603    1.9182    0.0000 C   0  0  0  0  0  0  0  0  0
   -1.2747    2.3307    0.0000 C   0  0  0  0  0  0  0  0  0
   -1.9892    1.9182    0.0000 N   0  0  0  0  0  0  0  0  0
   -1.9892    1.0932    0.0000 C   0  0  0  0  0  0  0  0  0
   -2.7037    0.6807    0.0000 C   0  0  0  0  0  0  0  0  0
   -3.4181    1.0932    0.0000 N   0  0  0  0  0  0  0  0  0
   -3.4181    1.9182    0.0000 C   0  0  0  0  0  0  0  0  0
   -2.7037    2.3307    0.0000 C   0  0  0  0  0  0  0  0  0
   -4.1326    0.6807    0.0000 C   0  0  0  0  0  0  0  0  0
   -4.1326   -0.1443    0.0000 C   0  0  0  0  0  0  0  0  0
   -3.4652   -0.6292    0.0000 N   0  0  0  0  0  0  0  0  0
   -3.7201   -1.4138    0.0000 N   0  0  0  0  0  0  0  0  0
   -4.5451   -1.4138    0.0000 N   0  0  0  0  0  0  0  0  0
   -4.8000   -0.6292    0.0000 C   0  0  0  0  0  0  0  0  0
   -5.0300   -2.0813    0.0000 C   0  0  0  0  0  0  0  0  0
   -4.6945   -2.8349    0.0000 C   0  0  0  0  0  0  0  0  0
   -5.1794   -3.5024    0.0000 C   0  0  0  0  0  0  0  0  0
   -5.9999   -3.4161    0.0000 C   0  0  0  0  0  0  0  0  0
   -6.3354   -2.6625    0.0000 C   0  0  0  0  0  0  0  0  0
   -5.8505   -1.9950    0.0000 C   0  0  0  0  0  0  0  0  0
  1  2  1  0  0  0  0
  1  3  1  0  0  0  0
  3  4  4  0  0  0  0
  3  8  4  0  0  0  0
  4  5  4  0  0  0  0
  5  6  4  0  0  0  0
  6  7  4  0  0  0  0
  7  8  4  0  0  0  0
  8  9  1  0  0  0  0
  9 10  1  0  0  0  0
  9 14  1  0  0  0  0
 10 11  1  0  0  0  0
 11 12  1  0  0  0  0
 12 13  1  0  0  0  0
 12 15  1  0  0  0  0
 13 14  1  0  0  0  0
 15 16  1  0  0  0  0
 16 17  4  0  0  0  0
 16 20  4  0  0  0  0
 17 18  4  0  0  0  0
 18 19  4  0  0  0  0
 19 20  4  0  0  0  0
 19 21  1  0  0  0  0
 21 22  4  0  0  0  0
 21 26  4  0  0  0  0
 22 23  4  0  0  0  0
 23 24  4  0  0  0  0
 24 25  4  0  0  0  0
 25 26  4  0  0  0  0
M  END
>  <Name_Molregno>
349452

>  <DOPAMINE D2>
7.06

>  <DOPAMINE D3>
6.47

>  <DOPAMINE D4>
8.57

$$$$
349535
  Marvin  02231216192D 0   1.00000     0.00000     0

 25 28  0  0  0  0  0  0  0  0999 V2000
    0.9453    2.4084    0.0000 F   0  0  0  0  0  0  0  0  0
    1.6598    1.9959    0.0000 C   0  0  0  0  0  0  0  0  0
    2.3742    2.4084    0.0000 C   0  0  0  0  0  0  0  0  0
    3.0887    1.9959    0.0000 C   0  0  0  0  0  0  0  0  0
    3.0887    1.1709    0.0000 C   0  0  0  0  0  0  0  0  0
    3.8032    0.7584    0.0000 N   0  0  0  0  0  0  0  0  0
    4.5177    1.1709    0.0000 C   0  0  0  0  0  0  0  0  0
    5.2321    0.7584    0.0000 C   0  0  0  0  0  0  0  0  0
    5.2321   -0.0666    0.0000 N   0  0  0  0  0  0  0  0  0
    4.5177   -0.4791    0.0000 C   0  0  0  0  0  0  0  0  0
    3.8032   -0.0666    0.0000 C   0  0  0  0  0  0  0  0  0
    5.9466   -0.4791    0.0000 C   0  0  0  0  0  0  0  0  0
    5.9466   -1.3041    0.0000 C   0  0  0  0  0  0  0  0  0
    6.6140   -1.7890    0.0000 C   0  0  0  0  0  0  0  0  0
    6.3591   -2.5736    0.0000 N   0  0  0  0  0  0  0  0  0
    5.5341   -2.5736    0.0000 N   0  0  0  0  0  0  0  0  0
    5.2792   -1.7890    0.0000 C   0  0  0  0  0  0  0  0  0
    6.8440   -3.2411    0.0000 C   0  0  0  0  0  0  0  0  0
    7.6645   -3.1548    0.0000 C   0  0  0  0  0  0  0  0  0
    8.1494   -3.8223    0.0000 C   0  0  0  0  0  0  0  0  0
    7.8139   -4.5759    0.0000 C   0  0  0  0  0  0  0  0  0
    6.9934   -4.6622    0.0000 C   0  0  0  0  0  0  0  0  0
    6.5085   -3.9947    0.0000 C   0  0  0  0  0  0  0  0  0
    2.3742    0.7584    0.0000 C   0  0  0  0  0  0  0  0  0
    1.6598    1.1709    0.0000 C   0  0  0  0  0  0  0  0  0
  1  2  1  0  0  0  0
  2  3  4  0  0  0  0
  2 25  4  0  0  0  0
  3  4  4  0  0  0  0
  4  5  4  0  0  0  0
  5  6  1  0  0  0  0
  5 24  4  0  0  0  0
  6  7  1  0  0  0  0
  6 11  1  0  0  0  0
  7  8  1  0  0  0  0
  8  9  1  0  0  0  0
  9 10  1  0  0  0  0
  9 12  1  0  0  0  0
 10 11  1  0  0  0  0
 12 13  1  0  0  0  0
 13 14  4  0  0  0  0
 13 17  4  0  0  0  0
 14 15  4  0  0  0  0
 15 16  4  0  0  0  0
 15 18  1  0  0  0  0
 16 17  4  0  0  0  0
 18 19  4  0  0  0  0
 18 23  4  0  0  0  0
 19 20  4  0  0  0  0
 20 21  4  0  0  0  0
 21 22  4  0  0  0  0
 22 23  4  0  0  0  0
 24 25  4  0  0  0  0
M  END
>  <Name_Molregno>
349535

>  <DOPAMINE D2>
6.37

>  <DOPAMINE D3>
6.27

>  <DOPAMINE D4>
8.54

$$$$
349570
  Marvin  02231216192D 0   1.00000     0.00000     0

 25 28  0  0  0  0  0  0  0  0999 V2000
   -5.8492    0.2937    0.0000 F   0  0  0  0  0  0  0  0  0
   -5.8492    1.1187    0.0000 C   0  0  0  0  0  0  0  0  0
   -6.5636    1.5312    0.0000 C   0  0  0  0  0  0  0  0  0
   -6.5636    2.3562    0.0000 C   0  0  0  0  0  0  0  0  0
   -5.8492    2.7687    0.0000 C   0  0  0  0  0  0  0  0  0
   -5.1347    2.3562    0.0000 C   0  0  0  0  0  0  0  0  0
   -5.1347    1.5312    0.0000 C   0  0  0  0  0  0  0  0  0
   -4.4202    1.1187    0.0000 N   0  0  0  0  0  0  0  0  0
   -3.7058    1.5312    0.0000 C   0  0  0  0  0  0  0  0  0
   -2.9913    1.1187    0.0000 C   0  0  0  0  0  0  0  0  0
   -2.9913    0.2937    0.0000 N   0  0  0  0  0  0  0  0  0
   -3.7058   -0.1188    0.0000 C   0  0  0  0  0  0  0  0  0
   -4.4202    0.2937    0.0000 C   0  0  0  0  0  0  0  0  0
   -2.2768   -0.1188    0.0000 C   0  0  0  0  0  0  0  0  0
   -2.2768   -0.9438    0.0000 C   0  0  0  0  0  0  0  0  0
   -1.6094   -1.4287    0.0000 C   0  0  0  0  0  0  0  0  0
   -1.8643   -2.2134    0.0000 N   0  0  0  0  0  0  0  0  0
   -2.6893   -2.2134    0.0000 N   0  0  0  0  0  0  0  0  0
   -2.9443   -1.4287    0.0000 C   0  0  0  0  0  0  0  0  0
   -1.3794   -2.8808    0.0000 C   0  0  0  0  0  0  0  0  0
   -0.5589   -2.7946    0.0000 C   0  0  0  0  0  0  0  0  0
   -0.0740   -3.4620    0.0000 C   0  0  0  0  0  0  0  0  0
   -0.4095   -4.2157    0.0000 C   0  0  0  0  0  0  0  0  0
   -1.2300   -4.3019    0.0000 C   0  0  0  0  0  0  0  0  0
   -1.7149   -3.6345    0.0000 C   0  0  0  0  0  0  0  0  0
  1  2  1  0  0  0  0
  2  3  4  0  0  0  0
  2  7  4  0  0  0  0
  3  4  4  0  0  0  0
  4  5  4  0  0  0  0
  5  6  4  0  0  0  0
  6  7  4  0  0  0  0
  7  8  1  0  0  0  0
  8  9  1  0  0  0  0
  8 13  1  0  0  0  0
  9 10  1  0  0  0  0
 10 11  1  0  0  0  0
 11 12  1  0  0  0  0
 11 14  1  0  0  0  0
 12 13  1  0  0  0  0
 14 15  1  0  0  0  0
 15 16  4  0  0  0  0
 15 19  4  0  0  0  0
 16 17  4  0  0  0  0
 17 18  4  0  0  0  0
 17 20  1  0  0  0  0
 18 19  4  0  0  0  0
 20 21  4  0  0  0  0
 20 25  4  0  0  0  0
 21 22  4  0  0  0  0
 22 23  4  0  0  0  0
 23 24  4  0  0  0  0
 24 25  4  0  0  0  0
M  END
>  <Name_Molregno>
349570

>  <DOPAMINE D2>
7.28

>  <DOPAMINE D3>
7.17

>  <DOPAMINE D4>
9.15

$$$$
349778
  Marvin  02231216192D 0   1.00000     0.00000     0

 37 41  0  0  0  0  0  0  0  0999 V2000
    1.3466    3.6338    0.0000 F   0  0  0  0  0  0  0  0  0
    0.7633    3.0505    0.0000 C   0  0  0  0  0  0  0  0  0
    0.9768    2.2536    0.0000 C   0  0  0  0  0  0  0  0  0
    1.7737    2.0401    0.0000 N   0  0  0  0  0  0  0  0  0
    2.3570    2.6234    0.0000 C   0  0  0  0  0  0  0  0  0
    3.1539    2.4099    0.0000 C   0  0  0  0  0  0  0  0  0
    3.3675    1.6130    0.0000 N   0  0  0  0  0  0  0  0  0
    2.7841    1.0296    0.0000 C   0  0  0  0  0  0  0  0  0
    1.9872    1.2432    0.0000 C   0  0  0  0  0  0  0  0  0
    4.1643    1.3995    0.0000 C   0  0  0  0  0  0  0  0  0
    4.3779    0.6026    0.0000 C   0  0  0  0  0  0  0  0  0
    5.1748    0.3891    0.0000 C   0  0  0  0  0  0  0  0  0
    5.3883   -0.4078    0.0000 C   0  0  0  0  0  0  0  0  0
    6.1852   -0.6213    0.0000 N   0  0  0  0  0  0  0  0  0
    6.3987   -1.4182    0.0000 C   0  0  0  0  0  0  0  0  0
    5.8153   -2.0016    0.0000 O   0  0  0  0  0  0  0  0  0
    7.1956   -1.6318    0.0000 C   0  0  0  0  0  0  0  0  0
    7.6081   -0.9173    0.0000 C   0  0  0  0  0  0  0  0  0
    8.3226   -0.5048    0.0000 C   0  0  0  0  0  0  0  0  0
    9.1476   -0.5048    0.0000 C   0  0  0  0  0  0  0  0  0
    9.8620   -0.9173    0.0000 C   0  0  0  0  0  0  0  0  0
   10.2745   -1.6318    0.0000 C   0  0  0  0  0  0  0  0  0
   10.2745   -2.4568    0.0000 C   0  0  0  0  0  0  0  0  0
    9.8620   -3.1712    0.0000 C   0  0  0  0  0  0  0  0  0
    9.1476   -3.5837    0.0000 C   0  0  0  0  0  0  0  0  0
    8.3226   -3.5837    0.0000 C   0  0  0  0  0  0  0  0  0
    7.6081   -3.1712    0.0000 C   0  0  0  0  0  0  0  0  0
    7.1956   -2.4568    0.0000 C   0  0  0  0  0  0  0  0  0
    7.7959   -2.4199    0.0000 C   0  0  0  0  0  0  0  0  0
    7.7959   -1.6686    0.0000 C   0  0  0  0  0  0  0  0  0
    9.6742   -2.4199    0.0000 C   0  0  0  0  0  0  0  0  0
    9.6742   -1.6686    0.0000 C   0  0  0  0  0  0  0  0  0
    0.3934    1.6702    0.0000 C   0  0  0  0  0  0  0  0  0
   -0.4035    1.8838    0.0000 C   0  0  0  0  0  0  0  0  0
   -0.6170    2.6806    0.0000 C   0  0  0  0  0  0  0  0  0
   -0.0336    3.2640    0.0000 C   0  0  0  0  0  0  0  0  0
   -0.2472    4.0609    0.0000 F   0  0  0  0  0  0  0  0  0
  1  2  1  0  0  0  0
  2  3  4  0  0  0  0
  2 36  4  0  0  0  0
  3  4  1  0  0  0  0
  3 33  4  0  0  0  0
  4  5  1  0  0  0  0
  4  9  1  0  0  0  0
  5  6  1  0  0  0  0
  6  7  1  0  0  0  0
  7  8  1  0  0  0  0
  7 10  1  0  0  0  0
  8  9  1  0  0  0  0
 10 11  1  0  0  0  0
 11 12  1  0  0  0  0
 12 13  1  0  0  0  0
 13 14  1  0  0  0  0
 14 15  1  0  0  0  0
 15 16  2  0  0  0  0
 15 17  1  0  0  0  0
 17 18  4  0  0  0  0
 17 28  4  0  0  0  0
 18 19  1  0  0  0  0
 18 30  4  0  0  0  0
 19 20  1  0  0  0  0
 20 21  1  0  0  0  0
 21 22  4  0  0  0  0
 21 32  4  0  0  0  0
 22 23  4  0  0  0  0
 23 24  4  0  0  0  0
 24 25  1  0  0  0  0
 24 31  4  0  0  0  0
 25 26  1  0  0  0  0
 26 27  1  0  0  0  0
 27 28  4  0  0  0  0
 27 29  4  0  0  0  0
 29 30  4  0  0  0  0
 31 32  4  0  0  0  0
 33 34  4  0  0  0  0
 34 35  4  0  0  0  0
 35 36  4  0  0  0  0
 36 37  1  0  0  0  0
M  END
>  <Name_Molregno>
349778

>  <5-HT1A>
6.54

>  <DOPAMINE D1>
6.24

>  <DOPAMINE D2>
7.19

>  <DOPAMINE D3>
8.72

>  <DOPAMINE D4>
7.74

$$$$
349935
  Marvin  02231216192D 0   1.00000     0.00000     0

 24 27  0  0  0  0  0  0  0  0999 V2000
    1.0936   -2.1604    0.0000 N   0  0  0  0  0  0  0  0  0
    0.2686   -2.1604    0.0000 N   0  0  0  0  0  0  0  0  0
    0.0136   -1.3757    0.0000 C   0  0  0  0  0  0  0  0  0
    0.6811   -0.8908    0.0000 C   0  0  0  0  0  0  0  0  0
    1.3485   -1.3757    0.0000 C   0  0  0  0  0  0  0  0  0
    0.6811   -0.0658    0.0000 C   0  0  0  0  0  0  0  0  0
    1.3955    0.3467    0.0000 N   0  0  0  0  0  0  0  0  0
    1.3955    1.1717    0.0000 C   0  0  0  0  0  0  0  0  0
    2.1100    1.5842    0.0000 C   0  0  0  0  0  0  0  0  0
    2.8245    1.1717    0.0000 C   0  0  0  0  0  0  0  0  0
    2.8245    0.3467    0.0000 C   0  0  0  0  0  0  0  0  0
    2.1100   -0.0658    0.0000 C   0  0  0  0  0  0  0  0  0
    3.5389    1.5842    0.0000 C   0  0  0  0  0  0  0  0  0
    3.5389    2.4092    0.0000 C   0  0  0  0  0  0  0  0  0
    4.2534    2.8217    0.0000 C   0  0  0  0  0  0  0  0  0
    4.9679    2.4092    0.0000 C   0  0  0  0  0  0  0  0  0
    4.9679    1.5842    0.0000 C   0  0  0  0  0  0  0  0  0
    4.2534    1.1717    0.0000 C   0  0  0  0  0  0  0  0  0
   -0.2164   -2.8278    0.0000 C   0  0  0  0  0  0  0  0  0
    0.1192   -3.5815    0.0000 C   0  0  0  0  0  0  0  0  0
   -0.3657   -4.2489    0.0000 C   0  0  0  0  0  0  0  0  0
   -1.1862   -4.1627    0.0000 C   0  0  0  0  0  0  0  0  0
   -1.5218   -3.4090    0.0000 C   0  0  0  0  0  0  0  0  0
   -1.0368   -2.7416    0.0000 C   0  0  0  0  0  0  0  0  0
  1  2  4  0  0  0  0
  1  5  4  0  0  0  0
  2  3  4  0  0  0  0
  2 19  1  0  0  0  0
  3  4  4  0  0  0  0
  4  5  4  0  0  0  0
  4  6  1  0  0  0  0
  6  7  1  0  0  0  0
  7  8  1  0  0  0  0
  7 12  1  0  0  0  0
  8  9  1  0  0  0  0
  9 10  1  0  0  0  0
 10 11  2  0  0  0  0
 10 13  1  0  0  0  0
 11 12  1  0  0  0  0
 13 14  4  0  0  0  0
 13 18  4  0  0  0  0
 14 15  4  0  0  0  0
 15 16  4  0  0  0  0
 16 17  4  0  0  0  0
 17 18  4  0  0  0  0
 19 20  4  0  0  0  0
 19 24  4  0  0  0  0
 20 21  4  0  0  0  0
 21 22  4  0  0  0  0
 22 23  4  0  0  0  0
 23 24  4  0  0  0  0
M  END
>  <Name_Molregno>
349935

>  <DOPAMINE D2>
7.49

>  <DOPAMINE D3>
7.48

>  <DOPAMINE D4>
9.23

$$$$
349936
  Marvin  02231216192D 0   1.00000     0.00000     0

 24 27  0  0  0  0  0  0  0  0999 V2000
   -5.6018   -3.3205    0.0000 N   0  0  0  0  0  0  0  0  0
   -4.9343   -2.8356    0.0000 N   0  0  0  0  0  0  0  0  0
   -4.2669   -3.3205    0.0000 C   0  0  0  0  0  0  0  0  0
   -4.5218   -4.1052    0.0000 C   0  0  0  0  0  0  0  0  0
   -5.3468   -4.1052    0.0000 C   0  0  0  0  0  0  0  0  0
   -4.9343   -2.0106    0.0000 C   0  0  0  0  0  0  0  0  0
   -5.6488   -1.5981    0.0000 C   0  0  0  0  0  0  0  0  0
   -5.6488   -0.7731    0.0000 C   0  0  0  0  0  0  0  0  0
   -4.9343   -0.3606    0.0000 C   0  0  0  0  0  0  0  0  0
   -4.2198   -0.7731    0.0000 C   0  0  0  0  0  0  0  0  0
   -4.2198   -1.5981    0.0000 C   0  0  0  0  0  0  0  0  0
   -4.9343    0.4644    0.0000 C   0  0  0  0  0  0  0  0  0
   -4.2198    0.8769    0.0000 N   0  0  0  0  0  0  0  0  0
   -4.2198    1.7019    0.0000 C   0  0  0  0  0  0  0  0  0
   -3.5054    2.1144    0.0000 C   0  0  0  0  0  0  0  0  0
   -2.7909    1.7019    0.0000 N   0  0  0  0  0  0  0  0  0
   -2.7909    0.8769    0.0000 C   0  0  0  0  0  0  0  0  0
   -3.5054    0.4644    0.0000 C   0  0  0  0  0  0  0  0  0
   -2.0764    2.1144    0.0000 C   0  0  0  0  0  0  0  0  0
   -2.0764    2.9394    0.0000 C   0  0  0  0  0  0  0  0  0
   -1.3620    3.3519    0.0000 C   0  0  0  0  0  0  0  0  0
   -0.6475    2.9394    0.0000 C   0  0  0  0  0  0  0  0  0
   -0.6475    2.1144    0.0000 C   0  0  0  0  0  0  0  0  0
   -1.3620    1.7019    0.0000 C   0  0  0  0  0  0  0  0  0
  1  2  4  0  0  0  0
  1  5  4  0  0  0  0
  2  3  4  0  0  0  0
  2  6  1  0  0  0  0
  3  4  4  0  0  0  0
  4  5  4  0  0  0  0
  6  7  4  0  0  0  0
  6 11  4  0  0  0  0
  7  8  4  0  0  0  0
  8  9  4  0  0  0  0
  9 10  4  0  0  0  0
  9 12  1  0  0  0  0
 10 11  4  0  0  0  0
 12 13  1  0  0  0  0
 13 14  1  0  0  0  0
 13 18  1  0  0  0  0
 14 15  1  0  0  0  0
 15 16  1  0  0  0  0
 16 17  1  0  0  0  0
 16 19  1  0  0  0  0
 17 18  1  0  0  0  0
 19 20  4  0  0  0  0
 19 24  4  0  0  0  0
 20 21  4  0  0  0  0
 21 22  4  0  0  0  0
 22 23  4  0  0  0  0
 23 24  4  0  0  0  0
M  END
>  <Name_Molregno>
349936

>  <DOPAMINE D2>
5.57

>  <DOPAMINE D3>
5.68

>  <DOPAMINE D4>
7.7

$$$$
349966
  Marvin  02231216192D 0   1.00000     0.00000     0

 24 27  0  0  0  0  0  0  0  0999 V2000
    0.6013   -1.0708    0.0000 N   0  0  0  0  0  0  0  0  0
    0.3463   -1.8554    0.0000 N   0  0  0  0  0  0  0  0  0
   -0.4787   -1.8554    0.0000 N   0  0  0  0  0  0  0  0  0
   -0.7336   -1.0708    0.0000 C   0  0  0  0  0  0  0  0  0
   -0.0662   -0.5859    0.0000 C   0  0  0  0  0  0  0  0  0
   -0.0662    0.2391    0.0000 C   0  0  0  0  0  0  0  0  0
    0.6483    0.6516    0.0000 N   0  0  0  0  0  0  0  0  0
    0.6483    1.4766    0.0000 C   0  0  0  0  0  0  0  0  0
    1.3628    1.8891    0.0000 C   0  0  0  0  0  0  0  0  0
    2.0772    1.4766    0.0000 C   0  0  0  0  0  0  0  0  0
    2.0772    0.6516    0.0000 C   0  0  0  0  0  0  0  0  0
    1.3628    0.2391    0.0000 C   0  0  0  0  0  0  0  0  0
    2.7917    1.8891    0.0000 C   0  0  0  0  0  0  0  0  0
    2.7917    2.7141    0.0000 C   0  0  0  0  0  0  0  0  0
    3.5062    3.1266    0.0000 C   0  0  0  0  0  0  0  0  0
    4.2206    2.7141    0.0000 C   0  0  0  0  0  0  0  0  0
    4.2206    1.8891    0.0000 C   0  0  0  0  0  0  0  0  0
    3.5062    1.4766    0.0000 C   0  0  0  0  0  0  0  0  0
   -0.9636   -2.5228    0.0000 C   0  0  0  0  0  0  0  0  0
   -0.6281   -3.2765    0.0000 C   0  0  0  0  0  0  0  0  0
   -1.1130   -3.9440    0.0000 C   0  0  0  0  0  0  0  0  0
   -1.9335   -3.8577    0.0000 C   0  0  0  0  0  0  0  0  0
   -2.2690   -3.1040    0.0000 C   0  0  0  0  0  0  0  0  0
   -1.7841   -2.4366    0.0000 C   0  0  0  0  0  0  0  0  0
  1  2  4  0  0  0  0
  1  5  4  0  0  0  0
  2  3  4  0  0  0  0
  3  4  4  0  0  0  0
  3 19  1  0  0  0  0
  4  5  4  0  0  0  0
  5  6  1  0  0  0  0
  6  7  1  0  0  0  0
  7  8  1  0  0  0  0
  7 12  1  0  0  0  0
  8  9  1  0  0  0  0
  9 10  1  0  0  0  0
 10 11  2  0  0  0  0
 10 13  1  0  0  0  0
 11 12  1  0  0  0  0
 13 14  4  0  0  0  0
 13 18  4  0  0  0  0
 14 15  4  0  0  0  0
 15 16  4  0  0  0  0
 16 17  4  0  0  0  0
 17 18  4  0  0  0  0
 19 20  4  0  0  0  0
 19 24  4  0  0  0  0
 20 21  4  0  0  0  0
 21 22  4  0  0  0  0
 22 23  4  0  0  0  0
 23 24  4  0  0  0  0
M  END
>  <Name_Molregno>
349966

>  <DOPAMINE D2>
6.81

>  <DOPAMINE D3>
7.03

>  <DOPAMINE D4>
8.49

$$$$
349977
  Marvin  02231216192D 0   1.00000     0.00000     0

 40 45  0  0  0  0  0  0  0  0999 V2000
    4.4297    0.9973    0.0000 O   0  0  0  0  0  0  0  0  0
    5.2143    0.7423    0.0000 C   0  0  0  0  0  0  0  0  0
    5.6268    1.4568    0.0000 C   0  0  0  0  0  0  0  0  0
    6.3413    1.8693    0.0000 C   0  0  0  0  0  0  0  0  0
    7.1663    1.8693    0.0000 C   0  0  0  0  0  0  0  0  0
    7.8808    1.4568    0.0000 C   0  0  0  0  0  0  0  0  0
    8.2933    0.7423    0.0000 C   0  0  0  0  0  0  0  0  0
    8.2933   -0.0827    0.0000 C   0  0  0  0  0  0  0  0  0
    7.8808   -0.7971    0.0000 C   0  0  0  0  0  0  0  0  0
    7.1663   -1.2096    0.0000 C   0  0  0  0  0  0  0  0  0
    6.3413   -1.2096    0.0000 C   0  0  0  0  0  0  0  0  0
    5.6268   -0.7971    0.0000 C   0  0  0  0  0  0  0  0  0
    5.2143   -0.0827    0.0000 C   0  0  0  0  0  0  0  0  0
    4.4297   -0.3376    0.0000 C   0  0  0  0  0  0  0  0  0
    3.9448    0.3298    0.0000 C   0  0  0  0  0  0  0  0  0
    3.1198    0.3298    0.0000 C   0  0  0  0  0  0  0  0  0
    2.7073    1.0443    0.0000 O   0  0  0  0  0  0  0  0  0
    2.7073   -0.3846    0.0000 N   0  0  0  0  0  0  0  0  0
    1.8823   -0.3846    0.0000 C   0  0  0  0  0  0  0  0  0
    1.4698   -1.0991    0.0000 C   0  0  0  0  0  0  0  0  0
    0.6448   -1.0991    0.0000 C   0  0  0  0  0  0  0  0  0
    0.2323   -1.8136    0.0000 C   0  0  0  0  0  0  0  0  0
   -0.5927   -1.8136    0.0000 N   0  0  0  0  0  0  0  0  0
   -1.0052   -2.5280    0.0000 C   0  0  0  0  0  0  0  0  0
   -1.8302   -2.5280    0.0000 C   0  0  0  0  0  0  0  0  0
   -2.2427   -1.8136    0.0000 N   0  0  0  0  0  0  0  0  0
   -1.8302   -1.0991    0.0000 C   0  0  0  0  0  0  0  0  0
   -1.0052   -1.0991    0.0000 C   0  0  0  0  0  0  0  0  0
   -3.0677   -1.8136    0.0000 C   0  0  0  0  0  0  0  0  0
   -3.4802   -2.5280    0.0000 C   0  0  0  0  0  0  0  0  0
   -4.3052   -2.5280    0.0000 C   0  0  0  0  0  0  0  0  0
   -4.7177   -1.8136    0.0000 C   0  0  0  0  0  0  0  0  0
   -4.3052   -1.0991    0.0000 C   0  0  0  0  0  0  0  0  0
   -3.4802   -1.0991    0.0000 C   0  0  0  0  0  0  0  0  0
   -3.0677   -0.3846    0.0000 O   0  0  0  0  0  0  0  0  0
   -3.4802    0.3298    0.0000 C   0  0  0  0  0  0  0  0  0
    5.8147   -0.0458    0.0000 C   0  0  0  0  0  0  0  0  0
    5.8147    0.7055    0.0000 C   0  0  0  0  0  0  0  0  0
    7.6930   -0.0458    0.0000 C   0  0  0  0  0  0  0  0  0
    7.6930    0.7055    0.0000 C   0  0  0  0  0  0  0  0  0
  1  2  4  0  0  0  0
  1 15  4  0  0  0  0
  2  3  4  0  0  0  0
  2 13  4  0  0  0  0
  3  4  1  0  0  0  0
  3 38  4  0  0  0  0
  4  5  1  0  0  0  0
  5  6  1  0  0  0  0
  6  7  4  0  0  0  0
  6 40  4  0  0  0  0
  7  8  4  0  0  0  0
  8  9  4  0  0  0  0
  9 10  1  0  0  0  0
  9 39  4  0  0  0  0
 10 11  1  0  0  0  0
 11 12  1  0  0  0  0
 12 13  4  0  0  0  0
 12 37  4  0  0  0  0
 13 14  4  0  0  0  0
 14 15  4  0  0  0  0
 15 16  1  0  0  0  0
 16 17  2  0  0  0  0
 16 18  1  0  0  0  0
 18 19  1  0  0  0  0
 19 20  1  0  0  0  0
 20 21  1  0  0  0  0
 21 22  1  0  0  0  0
 22 23  1  0  0  0  0
 23 24  1  0  0  0  0
 23 28  1  0  0  0  0
 24 25  1  0  0  0  0
 25 26  1  0  0  0  0
 26 27  1  0  0  0  0
 26 29  1  0  0  0  0
 27 28  1  0  0  0  0
 29 30  4  0  0  0  0
 29 34  4  0  0  0  0
 30 31  4  0  0  0  0
 31 32  4  0  0  0  0
 32 33  4  0  0  0  0
 33 34  4  0  0  0  0
 34 35  1  0  0  0  0
 35 36  1  0  0  0  0
 37 38  4  0  0  0  0
 39 40  4  0  0  0  0
M  END
>  <Name_Molregno>
349977

>  <5-HT1A>
6.72

>  <DOPAMINE D1>
6.11

>  <DOPAMINE D2>
6.92

>  <DOPAMINE D3>
7.8

>  <DOPAMINE D4>
6.85

$$$$
349999
  Marvin  02231216192D 0   1.00000     0.00000     0

 24 27  0  0  0  0  0  0  0  0999 V2000
    4.4577    1.0655    0.0000 N   0  0  0  0  0  0  0  0  0
    4.4577    1.8905    0.0000 C   0  0  0  0  0  0  0  0  0
    5.1721    2.3030    0.0000 C   0  0  0  0  0  0  0  0  0
    5.8866    1.8905    0.0000 C   0  0  0  0  0  0  0  0  0
    5.8866    1.0655    0.0000 C   0  0  0  0  0  0  0  0  0
    5.1721    0.6530    0.0000 C   0  0  0  0  0  0  0  0  0
    5.1721   -0.1720    0.0000 N   0  0  0  0  0  0  0  0  0
    5.8396   -0.6569    0.0000 N   0  0  0  0  0  0  0  0  0
    5.5846   -1.4415    0.0000 C   0  0  0  0  0  0  0  0  0
    4.7596   -1.4415    0.0000 C   0  0  0  0  0  0  0  0  0
    4.5047   -0.6569    0.0000 C   0  0  0  0  0  0  0  0  0
    4.2747   -2.1089    0.0000 C   0  0  0  0  0  0  0  0  0
    3.4542   -2.0227    0.0000 N   0  0  0  0  0  0  0  0  0
    2.9693   -2.6901    0.0000 C   0  0  0  0  0  0  0  0  0
    2.1488   -2.6039    0.0000 C   0  0  0  0  0  0  0  0  0
    1.8133   -1.8502    0.0000 N   0  0  0  0  0  0  0  0  0
    2.2982   -1.1828    0.0000 C   0  0  0  0  0  0  0  0  0
    3.1187   -1.2690    0.0000 C   0  0  0  0  0  0  0  0  0
    0.9928   -1.7640    0.0000 C   0  0  0  0  0  0  0  0  0
    0.5079   -2.4314    0.0000 C   0  0  0  0  0  0  0  0  0
   -0.3126   -2.3452    0.0000 C   0  0  0  0  0  0  0  0  0
   -0.6482   -1.5915    0.0000 C   0  0  0  0  0  0  0  0  0
   -0.1632   -0.9241    0.0000 C   0  0  0  0  0  0  0  0  0
    0.6572   -1.0103    0.0000 C   0  0  0  0  0  0  0  0  0
  1  2  4  0  0  0  0
  1  6  4  0  0  0  0
  2  3  4  0  0  0  0
  3  4  4  0  0  0  0
  4  5  4  0  0  0  0
  5  6  4  0  0  0  0
  6  7  1  0  0  0  0
  7  8  4  0  0  0  0
  7 11  4  0  0  0  0
  8  9  4  0  0  0  0
  9 10  4  0  0  0  0
 10 11  4  0  0  0  0
 10 12  1  0  0  0  0
 12 13  1  0  0  0  0
 13 14  1  0  0  0  0
 13 18  1  0  0  0  0
 14 15  1  0  0  0  0
 15 16  1  0  0  0  0
 16 17  1  0  0  0  0
 16 19  1  0  0  0  0
 17 18  1  0  0  0  0
 19 20  4  0  0  0  0
 19 24  4  0  0  0  0
 20 21  4  0  0  0  0
 21 22  4  0  0  0  0
 22 23  4  0  0  0  0
 23 24  4  0  0  0  0
M  END
>  <Name_Molregno>
349999

>  <DOPAMINE D2>
6.55

>  <DOPAMINE D3>
6.8

>  <DOPAMINE D4>
8.59

$$$$
350028
  Marvin  02231216192D 0   1.00000     0.00000     0

 26 29  0  0  0  0  0  0  0  0999 V2000
   -5.5675    0.2994    0.0000 O   0  0  0  0  0  0  0  0  0
   -6.2820   -0.1131    0.0000 C   0  0  0  0  0  0  0  0  0
   -5.5675    1.1244    0.0000 C   0  0  0  0  0  0  0  0  0
   -6.2820    1.5369    0.0000 C   0  0  0  0  0  0  0  0  0
   -6.2820    2.3619    0.0000 C   0  0  0  0  0  0  0  0  0
   -5.5675    2.7744    0.0000 C   0  0  0  0  0  0  0  0  0
   -4.8531    2.3619    0.0000 C   0  0  0  0  0  0  0  0  0
   -4.8531    1.5369    0.0000 C   0  0  0  0  0  0  0  0  0
   -4.1386    1.1244    0.0000 N   0  0  0  0  0  0  0  0  0
   -3.4241    1.5369    0.0000 C   0  0  0  0  0  0  0  0  0
   -2.7096    1.1244    0.0000 C   0  0  0  0  0  0  0  0  0
   -2.7096    0.2994    0.0000 N   0  0  0  0  0  0  0  0  0
   -3.4241   -0.1131    0.0000 C   0  0  0  0  0  0  0  0  0
   -4.1386    0.2994    0.0000 C   0  0  0  0  0  0  0  0  0
   -1.9952   -0.1131    0.0000 C   0  0  0  0  0  0  0  0  0
   -1.9952   -0.9381    0.0000 C   0  0  0  0  0  0  0  0  0
   -1.3277   -1.4230    0.0000 C   0  0  0  0  0  0  0  0  0
   -1.5827   -2.2076    0.0000 N   0  0  0  0  0  0  0  0  0
   -2.4077   -2.2076    0.0000 N   0  0  0  0  0  0  0  0  0
   -2.6626   -1.4230    0.0000 C   0  0  0  0  0  0  0  0  0
   -1.0977   -2.8751    0.0000 C   0  0  0  0  0  0  0  0  0
   -0.2773   -2.7888    0.0000 N   0  0  0  0  0  0  0  0  0
    0.2077   -3.4563    0.0000 C   0  0  0  0  0  0  0  0  0
   -0.1279   -4.2099    0.0000 C   0  0  0  0  0  0  0  0  0
   -0.9484   -4.2962    0.0000 C   0  0  0  0  0  0  0  0  0
   -1.4333   -3.6287    0.0000 C   0  0  0  0  0  0  0  0  0
  1  2  1  0  0  0  0
  1  3  1  0  0  0  0
  3  4  4  0  0  0  0
  3  8  4  0  0  0  0
  4  5  4  0  0  0  0
  5  6  4  0  0  0  0
  6  7  4  0  0  0  0
  7  8  4  0  0  0  0
  8  9  1  0  0  0  0
  9 10  1  0  0  0  0
  9 14  1  0  0  0  0
 10 11  1  0  0  0  0
 11 12  1  0  0  0  0
 12 13  1  0  0  0  0
 12 15  1  0  0  0  0
 13 14  1  0  0  0  0
 15 16  1  0  0  0  0
 16 17  4  0  0  0  0
 16 20  4  0  0  0  0
 17 18  4  0  0  0  0
 18 19  4  0  0  0  0
 18 21  1  0  0  0  0
 19 20  4  0  0  0  0
 21 22  4  0  0  0  0
 21 26  4  0  0  0  0
 22 23  4  0  0  0  0
 23 24  4  0  0  0  0
 24 25  4  0  0  0  0
 25 26  4  0  0  0  0
M  END
>  <Name_Molregno>
350028

>  <DOPAMINE D2>
7.44

>  <DOPAMINE D3>
7.14

>  <DOPAMINE D4>
9.36

$$$$
350029
  Marvin  02231216192D 0   1.00000     0.00000     0

 24 27  0  0  0  0  0  0  0  0999 V2000
    1.0936   -2.1604    0.0000 N   0  0  0  0  0  0  0  0  0
    0.2686   -2.1604    0.0000 N   0  0  0  0  0  0  0  0  0
    0.0136   -1.3757    0.0000 C   0  0  0  0  0  0  0  0  0
    0.6811   -0.8908    0.0000 C   0  0  0  0  0  0  0  0  0
    1.3485   -1.3757    0.0000 C   0  0  0  0  0  0  0  0  0
    0.6811   -0.0658    0.0000 C   0  0  0  0  0  0  0  0  0
    1.3955    0.3467    0.0000 N   0  0  0  0  0  0  0  0  0
    1.3955    1.1717    0.0000 C   0  0  0  0  0  0  0  0  0
    2.1100    1.5842    0.0000 C   0  0  0  0  0  0  0  0  0
    2.8245    1.1717    0.0000 N   0  0  0  0  0  0  0  0  0
    2.8245    0.3467    0.0000 C   0  0  0  0  0  0  0  0  0
    2.1100   -0.0658    0.0000 C   0  0  0  0  0  0  0  0  0
    3.5389    1.5842    0.0000 C   0  0  0  0  0  0  0  0  0
    3.5389    2.4092    0.0000 C   0  0  0  0  0  0  0  0  0
    4.2534    2.8217    0.0000 C   0  0  0  0  0  0  0  0  0
    4.9679    2.4092    0.0000 C   0  0  0  0  0  0  0  0  0
    4.9679    1.5842    0.0000 C   0  0  0  0  0  0  0  0  0
    4.2534    1.1717    0.0000 C   0  0  0  0  0  0  0  0  0
   -0.2164   -2.8278    0.0000 C   0  0  0  0  0  0  0  0  0
    0.1192   -3.5815    0.0000 C   0  0  0  0  0  0  0  0  0
   -0.3657   -4.2489    0.0000 C   0  0  0  0  0  0  0  0  0
   -1.1862   -4.1627    0.0000 C   0  0  0  0  0  0  0  0  0
   -1.5218   -3.4090    0.0000 C   0  0  0  0  0  0  0  0  0
   -1.0368   -2.7416    0.0000 C   0  0  0  0  0  0  0  0  0
  1  2  4  0  0  0  0
  1  5  4  0  0  0  0
  2  3  4  0  0  0  0
  2 19  1  0  0  0  0
  3  4  4  0  0  0  0
  4  5  4  0  0  0  0
  4  6  1  0  0  0  0
  6  7  1  0  0  0  0
  7  8  1  0  0  0  0
  7 12  1  0  0  0  0
  8  9  1  0  0  0  0
  9 10  1  0  0  0  0
 10 11  1  0  0  0  0
 10 13  1  0  0  0  0
 11 12  1  0  0  0  0
 13 14  4  0  0  0  0
 13 18  4  0  0  0  0
 14 15  4  0  0  0  0
 15 16  4  0  0  0  0
 16 17  4  0  0  0  0
 17 18  4  0  0  0  0
 19 20  4  0  0  0  0
 19 24  4  0  0  0  0
 20 21  4  0  0  0  0
 21 22  4  0  0  0  0
 22 23  4  0  0  0  0
 23 24  4  0  0  0  0
M  END
>  <Name_Molregno>
350029

>  <DOPAMINE D2>
6.94

>  <DOPAMINE D3>
6.85

>  <DOPAMINE D4>
9

$$$$
350057
  Marvin  02231216192D 0   1.00000     0.00000     0

 25 28  0  0  0  0  0  0  0  0999 V2000
    0.9453    2.4084    0.0000 Cl  0  0  0  0  0  0  0  0  0
    1.6598    1.9959    0.0000 C   0  0  0  0  0  0  0  0  0
    2.3742    2.4084    0.0000 C   0  0  0  0  0  0  0  0  0
    3.0887    1.9959    0.0000 C   0  0  0  0  0  0  0  0  0
    3.0887    1.1709    0.0000 C   0  0  0  0  0  0  0  0  0
    3.8032    0.7584    0.0000 N   0  0  0  0  0  0  0  0  0
    4.5177    1.1709    0.0000 C   0  0  0  0  0  0  0  0  0
    5.2321    0.7584    0.0000 C   0  0  0  0  0  0  0  0  0
    5.2321   -0.0666    0.0000 N   0  0  0  0  0  0  0  0  0
    4.5177   -0.4791    0.0000 C   0  0  0  0  0  0  0  0  0
    3.8032   -0.0666    0.0000 C   0  0  0  0  0  0  0  0  0
    5.9466   -0.4791    0.0000 C   0  0  0  0  0  0  0  0  0
    5.9466   -1.3041    0.0000 C   0  0  0  0  0  0  0  0  0
    6.6140   -1.7890    0.0000 C   0  0  0  0  0  0  0  0  0
    6.3591   -2.5736    0.0000 N   0  0  0  0  0  0  0  0  0
    5.5341   -2.5736    0.0000 N   0  0  0  0  0  0  0  0  0
    5.2792   -1.7890    0.0000 C   0  0  0  0  0  0  0  0  0
    6.8440   -3.2411    0.0000 C   0  0  0  0  0  0  0  0  0
    7.6645   -3.1548    0.0000 C   0  0  0  0  0  0  0  0  0
    8.1494   -3.8223    0.0000 C   0  0  0  0  0  0  0  0  0
    7.8139   -4.5759    0.0000 C   0  0  0  0  0  0  0  0  0
    6.9934   -4.6622    0.0000 C   0  0  0  0  0  0  0  0  0
    6.5085   -3.9947    0.0000 C   0  0  0  0  0  0  0  0  0
    2.3742    0.7584    0.0000 C   0  0  0  0  0  0  0  0  0
    1.6598    1.1709    0.0000 C   0  0  0  0  0  0  0  0  0
  1  2  1  0  0  0  0
  2  3  4  0  0  0  0
  2 25  4  0  0  0  0
  3  4  4  0  0  0  0
  4  5  4  0  0  0  0
  5  6  1  0  0  0  0
  5 24  4  0  0  0  0
  6  7  1  0  0  0  0
  6 11  1  0  0  0  0
  7  8  1  0  0  0  0
  8  9  1  0  0  0  0
  9 10  1  0  0  0  0
  9 12  1  0  0  0  0
 10 11  1  0  0  0  0
 12 13  1  0  0  0  0
 13 14  4  0  0  0  0
 13 17  4  0  0  0  0
 14 15  4  0  0  0  0
 15 16  4  0  0  0  0
 15 18  1  0  0  0  0
 16 17  4  0  0  0  0
 18 19  4  0  0  0  0
 18 23  4  0  0  0  0
 19 20  4  0  0  0  0
 20 21  4  0  0  0  0
 21 22  4  0  0  0  0
 22 23  4  0  0  0  0
 24 25  4  0  0  0  0
M  END
>  <Name_Molregno>
350057

>  <DOPAMINE D2>
5.6

>  <DOPAMINE D3>
5.72

>  <DOPAMINE D4>
8.54

$$$$
350714
  Marvin  02231216192D 0   1.00000     0.00000     0

 24 27  0  0  0  0  0  0  0  0999 V2000
    8.5261   -2.9246    0.0000 Cl  0  0  0  0  0  0  0  0  0
    7.8116   -2.5121    0.0000 C   0  0  0  0  0  0  0  0  0
    7.0972   -2.9246    0.0000 N   0  0  0  0  0  0  0  0  0
    6.3827   -2.5121    0.0000 N   0  0  0  0  0  0  0  0  0
    5.5981   -2.7670    0.0000 C   0  0  0  0  0  0  0  0  0
    5.1131   -2.0996    0.0000 C   0  0  0  0  0  0  0  0  0
    5.5981   -1.4321    0.0000 N   0  0  0  0  0  0  0  0  0
    6.3827   -1.6871    0.0000 C   0  0  0  0  0  0  0  0  0
    7.0972   -1.2746    0.0000 C   0  0  0  0  0  0  0  0  0
    7.8116   -1.6871    0.0000 C   0  0  0  0  0  0  0  0  0
    4.2881   -2.0996    0.0000 C   0  0  0  0  0  0  0  0  0
    3.8756   -1.3851    0.0000 N   0  0  0  0  0  0  0  0  0
    3.0506   -1.3851    0.0000 C   0  0  0  0  0  0  0  0  0
    2.6381   -0.6706    0.0000 C   0  0  0  0  0  0  0  0  0
    3.0506    0.0438    0.0000 N   0  0  0  0  0  0  0  0  0
    3.8756    0.0438    0.0000 C   0  0  0  0  0  0  0  0  0
    4.2881   -0.6706    0.0000 C   0  0  0  0  0  0  0  0  0
    2.6381    0.7583    0.0000 C   0  0  0  0  0  0  0  0  0
    1.8131    0.7583    0.0000 C   0  0  0  0  0  0  0  0  0
    1.4006    1.4728    0.0000 C   0  0  0  0  0  0  0  0  0
    1.8131    2.1872    0.0000 C   0  0  0  0  0  0  0  0  0
    1.4006    2.9017    0.0000 Cl  0  0  0  0  0  0  0  0  0
    2.6381    2.1872    0.0000 C   0  0  0  0  0  0  0  0  0
    3.0506    1.4728    0.0000 C   0  0  0  0  0  0  0  0  0
  1  2  1  0  0  0  0
  2  3  4  0  0  0  0
  2 10  4  0  0  0  0
  3  4  4  0  0  0  0
  4  5  4  0  0  0  0
  4  8  4  0  0  0  0
  5  6  4  0  0  0  0
  6  7  4  0  0  0  0
  6 11  1  0  0  0  0
  7  8  4  0  0  0  0
  8  9  4  0  0  0  0
  9 10  4  0  0  0  0
 11 12  1  0  0  0  0
 12 13  1  0  0  0  0
 12 17  1  0  0  0  0
 13 14  1  0  0  0  0
 14 15  1  0  0  0  0
 15 16  1  0  0  0  0
 15 18  1  0  0  0  0
 16 17  1  0  0  0  0
 18 19  4  0  0  0  0
 18 24  4  0  0  0  0
 19 20  4  0  0  0  0
 20 21  4  0  0  0  0
 21 22  1  0  0  0  0
 21 23  4  0  0  0  0
 23 24  4  0  0  0  0
M  END
>  <Name_Molregno>
350714

>  <DOPAMINE D2>
5.01

>  <DOPAMINE D3>
5.11

>  <DOPAMINE D4>
8.7

$$$$
350716
  Marvin  02231216192D 0   1.00000     0.00000     0

 26 29  0  0  0  0  0  0  0  0999 V2000
    6.1280   -1.0133    0.0000 Br  0  0  0  0  0  0  0  0  0
    6.1280   -1.8383    0.0000 C   0  0  0  0  0  0  0  0  0
    6.8424   -2.2508    0.0000 C   0  0  0  0  0  0  0  0  0
    6.8424   -3.0758    0.0000 C   0  0  0  0  0  0  0  0  0
    6.1280   -3.4883    0.0000 C   0  0  0  0  0  0  0  0  0
    5.4135   -3.0758    0.0000 N   0  0  0  0  0  0  0  0  0
    5.4135   -2.2508    0.0000 C   0  0  0  0  0  0  0  0  0
    4.6289   -1.9959    0.0000 N   0  0  0  0  0  0  0  0  0
    4.1439   -2.6633    0.0000 C   0  0  0  0  0  0  0  0  0
    4.6289   -3.3308    0.0000 C   0  0  0  0  0  0  0  0  0
    3.3189   -2.6633    0.0000 C   0  0  0  0  0  0  0  0  0
    2.9064   -1.9489    0.0000 N   0  0  0  0  0  0  0  0  0
    2.0814   -1.9489    0.0000 C   0  0  0  0  0  0  0  0  0
    1.6689   -1.2344    0.0000 C   0  0  0  0  0  0  0  0  0
    2.0814   -0.5199    0.0000 N   0  0  0  0  0  0  0  0  0
    2.9064   -0.5199    0.0000 C   0  0  0  0  0  0  0  0  0
    3.3189   -1.2344    0.0000 C   0  0  0  0  0  0  0  0  0
    1.6689    0.1946    0.0000 C   0  0  0  0  0  0  0  0  0
    0.8439    0.1946    0.0000 C   0  0  0  0  0  0  0  0  0
    0.4314    0.9090    0.0000 C   0  0  0  0  0  0  0  0  0
    0.8439    1.6235    0.0000 C   0  0  0  0  0  0  0  0  0
    1.6689    1.6235    0.0000 C   0  0  0  0  0  0  0  0  0
    2.0814    0.9090    0.0000 C   0  0  0  0  0  0  0  0  0
    2.9064    0.9090    0.0000 O   0  0  0  0  0  0  0  0  0
    3.3189    1.6235    0.0000 C   0  0  0  0  0  0  0  0  0
    7.5569   -3.4883    0.0000 C   0  0  0  0  0  0  0  0  0
  1  2  1  0  0  0  0
  2  3  4  0  0  0  0
  2  7  4  0  0  0  0
  3  4  4  0  0  0  0
  4  5  4  0  0  0  0
  4 26  1  0  0  0  0
  5  6  4  0  0  0  0
  6  7  4  0  0  0  0
  6 10  4  0  0  0  0
  7  8  4  0  0  0  0
  8  9  4  0  0  0  0
  9 10  4  0  0  0  0
  9 11  1  0  0  0  0
 11 12  1  0  0  0  0
 12 13  1  0  0  0  0
 12 17  1  0  0  0  0
 13 14  1  0  0  0  0
 14 15  1  0  0  0  0
 15 16  1  0  0  0  0
 15 18  1  0  0  0  0
 16 17  1  0  0  0  0
 18 19  4  0  0  0  0
 18 23  4  0  0  0  0
 19 20  4  0  0  0  0
 20 21  4  0  0  0  0
 21 22  4  0  0  0  0
 22 23  4  0  0  0  0
 23 24  1  0  0  0  0
 24 25  1  0  0  0  0
M  END
>  <Name_Molregno>
350716

>  <DOPAMINE D2>
6.72

>  <DOPAMINE D3>
6.17

>  <DOPAMINE D4>
9

$$$$
350743
  Marvin  02231216192D 0   1.00000     0.00000     0

 23 26  0  0  0  0  0  0  0  0999 V2000
    1.4515   -2.7342    0.0000 F   0  0  0  0  0  0  0  0  0
    1.8640   -2.0197    0.0000 C   0  0  0  0  0  0  0  0  0
    1.4515   -1.3053    0.0000 C   0  0  0  0  0  0  0  0  0
    1.8640   -0.5908    0.0000 C   0  0  0  0  0  0  0  0  0
    2.6890   -0.5908    0.0000 C   0  0  0  0  0  0  0  0  0
    3.1015    0.1237    0.0000 N   0  0  0  0  0  0  0  0  0
    2.6890    0.8382    0.0000 C   0  0  0  0  0  0  0  0  0
    3.1015    1.5526    0.0000 C   0  0  0  0  0  0  0  0  0
    3.9265    1.5526    0.0000 N   0  0  0  0  0  0  0  0  0
    4.3390    0.8382    0.0000 C   0  0  0  0  0  0  0  0  0
    3.9265    0.1237    0.0000 C   0  0  0  0  0  0  0  0  0
    4.3390    2.2671    0.0000 C   0  0  0  0  0  0  0  0  0
    5.1640    2.2671    0.0000 C   0  0  0  0  0  0  0  0  0
    5.6489    1.5997    0.0000 N   0  0  0  0  0  0  0  0  0
    6.4336    1.8546    0.0000 C   0  0  0  0  0  0  0  0  0
    6.4336    2.6796    0.0000 N   0  0  0  0  0  0  0  0  0
    5.6489    2.9345    0.0000 C   0  0  0  0  0  0  0  0  0
    7.1480    3.0921    0.0000 C   0  0  0  0  0  0  0  0  0
    7.8625    2.6796    0.0000 C   0  0  0  0  0  0  0  0  0
    7.8625    1.8546    0.0000 N   0  0  0  0  0  0  0  0  0
    7.1480    1.4421    0.0000 C   0  0  0  0  0  0  0  0  0
    3.1015   -1.3053    0.0000 C   0  0  0  0  0  0  0  0  0
    2.6890   -2.0197    0.0000 C   0  0  0  0  0  0  0  0  0
  1  2  1  0  0  0  0
  2  3  4  0  0  0  0
  2 23  4  0  0  0  0
  3  4  4  0  0  0  0
  4  5  4  0  0  0  0
  5  6  1  0  0  0  0
  5 22  4  0  0  0  0
  6  7  1  0  0  0  0
  6 11  1  0  0  0  0
  7  8  1  0  0  0  0
  8  9  1  0  0  0  0
  9 10  1  0  0  0  0
  9 12  1  0  0  0  0
 10 11  1  0  0  0  0
 12 13  1  0  0  0  0
 13 14  4  0  0  0  0
 13 17  4  0  0  0  0
 14 15  4  0  0  0  0
 15 16  4  0  0  0  0
 15 21  4  0  0  0  0
 16 17  4  0  0  0  0
 16 18  4  0  0  0  0
 18 19  4  0  0  0  0
 19 20  4  0  0  0  0
 20 21  4  0  0  0  0
 22 23  4  0  0  0  0
M  END
>  <Name_Molregno>
350743

>  <DOPAMINE D2>
4.18

>  <DOPAMINE D3>
4.38

>  <DOPAMINE D4>
6.3

$$$$
350744
  Marvin  02231216192D 0   1.00000     0.00000     0

 23 26  0  0  0  0  0  0  0  0999 V2000
    1.4515   -2.7342    0.0000 F   0  0  0  0  0  0  0  0  0
    1.8640   -2.0197    0.0000 C   0  0  0  0  0  0  0  0  0
    1.4515   -1.3053    0.0000 C   0  0  0  0  0  0  0  0  0
    1.8640   -0.5908    0.0000 C   0  0  0  0  0  0  0  0  0
    2.6890   -0.5908    0.0000 C   0  0  0  0  0  0  0  0  0
    3.1015    0.1237    0.0000 N   0  0  0  0  0  0  0  0  0
    2.6890    0.8382    0.0000 C   0  0  0  0  0  0  0  0  0
    3.1015    1.5526    0.0000 C   0  0  0  0  0  0  0  0  0
    3.9265    1.5526    0.0000 N   0  0  0  0  0  0  0  0  0
    4.3390    0.8382    0.0000 C   0  0  0  0  0  0  0  0  0
    3.9265    0.1237    0.0000 C   0  0  0  0  0  0  0  0  0
    4.3390    2.2671    0.0000 C   0  0  0  0  0  0  0  0  0
    5.1640    2.2671    0.0000 C   0  0  0  0  0  0  0  0  0
    5.6489    1.5997    0.0000 N   0  0  0  0  0  0  0  0  0
    6.4336    1.8546    0.0000 C   0  0  0  0  0  0  0  0  0
    6.4336    2.6796    0.0000 N   0  0  0  0  0  0  0  0  0
    5.6489    2.9345    0.0000 C   0  0  0  0  0  0  0  0  0
    7.1480    3.0921    0.0000 C   0  0  0  0  0  0  0  0  0
    7.8625    2.6796    0.0000 C   0  0  0  0  0  0  0  0  0
    7.8625    1.8546    0.0000 C   0  0  0  0  0  0  0  0  0
    7.1480    1.4421    0.0000 N   0  0  0  0  0  0  0  0  0
    3.1015   -1.3053    0.0000 C   0  0  0  0  0  0  0  0  0
    2.6890   -2.0197    0.0000 C   0  0  0  0  0  0  0  0  0
  1  2  1  0  0  0  0
  2  3  4  0  0  0  0
  2 23  4  0  0  0  0
  3  4  4  0  0  0  0
  4  5  4  0  0  0  0
  5  6  1  0  0  0  0
  5 22  4  0  0  0  0
  6  7  1  0  0  0  0
  6 11  1  0  0  0  0
  7  8  1  0  0  0  0
  8  9  1  0  0  0  0
  9 10  1  0  0  0  0
  9 12  1  0  0  0  0
 10 11  1  0  0  0  0
 12 13  1  0  0  0  0
 13 14  4  0  0  0  0
 13 17  4  0  0  0  0
 14 15  4  0  0  0  0
 15 16  4  0  0  0  0
 15 21  4  0  0  0  0
 16 17  4  0  0  0  0
 16 18  4  0  0  0  0
 18 19  4  0  0  0  0
 19 20  4  0  0  0  0
 20 21  4  0  0  0  0
 22 23  4  0  0  0  0
M  END
>  <Name_Molregno>
350744

>  <DOPAMINE D2>
4.29

>  <DOPAMINE D3>
4.22

>  <DOPAMINE D4>
5.55

$$$$
350745
  Marvin  02231216192D 0   1.00000     0.00000     0

 26 29  0  0  0  0  0  0  0  0999 V2000
    6.1280   -1.0133    0.0000 I   0  0  0  0  0  0  0  0  0
    6.1280   -1.8383    0.0000 C   0  0  0  0  0  0  0  0  0
    6.8424   -2.2508    0.0000 C   0  0  0  0  0  0  0  0  0
    6.8424   -3.0758    0.0000 C   0  0  0  0  0  0  0  0  0
    6.1280   -3.4883    0.0000 C   0  0  0  0  0  0  0  0  0
    5.4135   -3.0758    0.0000 N   0  0  0  0  0  0  0  0  0
    5.4135   -2.2508    0.0000 C   0  0  0  0  0  0  0  0  0
    4.6289   -1.9959    0.0000 N   0  0  0  0  0  0  0  0  0
    4.1439   -2.6633    0.0000 C   0  0  0  0  0  0  0  0  0
    4.6289   -3.3308    0.0000 C   0  0  0  0  0  0  0  0  0
    3.3189   -2.6633    0.0000 C   0  0  0  0  0  0  0  0  0
    2.9064   -1.9489    0.0000 N   0  0  0  0  0  0  0  0  0
    2.0814   -1.9489    0.0000 C   0  0  0  0  0  0  0  0  0
    1.6689   -1.2344    0.0000 C   0  0  0  0  0  0  0  0  0
    2.0814   -0.5199    0.0000 N   0  0  0  0  0  0  0  0  0
    2.9064   -0.5199    0.0000 C   0  0  0  0  0  0  0  0  0
    3.3189   -1.2344    0.0000 C   0  0  0  0  0  0  0  0  0
    1.6689    0.1946    0.0000 C   0  0  0  0  0  0  0  0  0
    0.8439    0.1946    0.0000 C   0  0  0  0  0  0  0  0  0
    0.4314    0.9090    0.0000 C   0  0  0  0  0  0  0  0  0
    0.8439    1.6235    0.0000 C   0  0  0  0  0  0  0  0  0
    1.6689    1.6235    0.0000 C   0  0  0  0  0  0  0  0  0
    2.0814    0.9090    0.0000 C   0  0  0  0  0  0  0  0  0
    2.9064    0.9090    0.0000 O   0  0  0  0  0  0  0  0  0
    3.3189    1.6235    0.0000 C   0  0  0  0  0  0  0  0  0
    7.5569   -3.4883    0.0000 C   0  0  0  0  0  0  0  0  0
  1  2  1  0  0  0  0
  2  3  4  0  0  0  0
  2  7  4  0  0  0  0
  3  4  4  0  0  0  0
  4  5  4  0  0  0  0
  4 26  1  0  0  0  0
  5  6  4  0  0  0  0
  6  7  4  0  0  0  0
  6 10  4  0  0  0  0
  7  8  4  0  0  0  0
  8  9  4  0  0  0  0
  9 10  4  0  0  0  0
  9 11  1  0  0  0  0
 11 12  1  0  0  0  0
 12 13  1  0  0  0  0
 12 17  1  0  0  0  0
 13 14  1  0  0  0  0
 14 15  1  0  0  0  0
 15 16  1  0  0  0  0
 15 18  1  0  0  0  0
 16 17  1  0  0  0  0
 18 19  4  0  0  0  0
 18 23  4  0  0  0  0
 19 20  4  0  0  0  0
 20 21  4  0  0  0  0
 21 22  4  0  0  0  0
 22 23  4  0  0  0  0
 23 24  1  0  0  0  0
 24 25  1  0  0  0  0
M  END
>  <Name_Molregno>
350745

>  <DOPAMINE D2>
7.04

>  <DOPAMINE D3>
6.33

>  <DOPAMINE D4>
9.28

$$$$
350775
  Marvin  02231216192D 0   1.00000     0.00000     0

 30 34  0  0  0  0  0  0  0  0999 V2000
    0.5164   -2.4106    0.0000 Cl  0  0  0  0  0  0  0  0  0
    1.3414   -2.4106    0.0000 C   0  0  0  0  0  0  0  0  0
    1.7539   -1.6962    0.0000 C   0  0  0  0  0  0  0  0  0
    2.5789   -1.6962    0.0000 C   0  0  0  0  0  0  0  0  0
    2.9914   -0.9817    0.0000 N   0  0  0  0  0  0  0  0  0
    2.5789   -0.2672    0.0000 C   0  0  0  0  0  0  0  0  0
    2.9914    0.4472    0.0000 C   0  0  0  0  0  0  0  0  0
    3.8164    0.4472    0.0000 N   0  0  0  0  0  0  0  0  0
    4.2289   -0.2672    0.0000 C   0  0  0  0  0  0  0  0  0
    3.8164   -0.9817    0.0000 C   0  0  0  0  0  0  0  0  0
    4.2289    1.1617    0.0000 C   0  0  0  0  0  0  0  0  0
    5.0539    1.1617    0.0000 C   0  0  0  0  0  0  0  0  0
    5.5389    0.4943    0.0000 N   0  0  0  0  0  0  0  0  0
    6.3235    0.7492    0.0000 C   0  0  0  0  0  0  0  0  0
    6.3235    1.5742    0.0000 N   0  0  0  0  0  0  0  0  0
    7.0380    1.9867    0.0000 N   0  0  0  0  0  0  0  0  0
    7.7524    1.5742    0.0000 C   0  0  0  0  0  0  0  0  0
    8.4669    1.9867    0.0000 N   0  0  0  0  0  0  0  0  0
    8.4669    2.8117    0.0000 C   0  0  0  0  0  0  0  0  0
    9.1814    3.2242    0.0000 C   0  0  0  0  0  0  0  0  0
    9.8958    2.8117    0.0000 C   0  0  0  0  0  0  0  0  0
    9.8958    1.9867    0.0000 C   0  0  0  0  0  0  0  0  0
    9.1814    1.5742    0.0000 C   0  0  0  0  0  0  0  0  0
    7.7524    0.7492    0.0000 C   0  0  0  0  0  0  0  0  0
    7.0380    0.3367    0.0000 C   0  0  0  0  0  0  0  0  0
    5.5389    1.8291    0.0000 C   0  0  0  0  0  0  0  0  0
    2.9914   -2.4106    0.0000 C   0  0  0  0  0  0  0  0  0
    2.5789   -3.1251    0.0000 C   0  0  0  0  0  0  0  0  0
    1.7539   -3.1251    0.0000 C   0  0  0  0  0  0  0  0  0
    1.3414   -3.8396    0.0000 Cl  0  0  0  0  0  0  0  0  0
  1  2  1  0  0  0  0
  2  3  4  0  0  0  0
  2 29  4  0  0  0  0
  3  4  4  0  0  0  0
  4  5  1  0  0  0  0
  4 27  4  0  0  0  0
  5  6  1  0  0  0  0
  5 10  1  0  0  0  0
  6  7  1  0  0  0  0
  7  8  1  0  0  0  0
  8  9  1  0  0  0  0
  8 11  1  0  0  0  0
  9 10  1  0  0  0  0
 11 12  1  0  0  0  0
 12 13  4  0  0  0  0
 12 26  4  0  0  0  0
 13 14  4  0  0  0  0
 14 15  4  0  0  0  0
 14 25  4  0  0  0  0
 15 16  4  0  0  0  0
 15 26  4  0  0  0  0
 16 17  4  0  0  0  0
 17 18  1  0  0  0  0
 17 24  4  0  0  0  0
 18 19  1  0  0  0  0
 18 23  1  0  0  0  0
 19 20  1  0  0  0  0
 20 21  1  0  0  0  0
 21 22  1  0  0  0  0
 22 23  1  0  0  0  0
 24 25  4  0  0  0  0
 27 28  4  0  0  0  0
 28 29  4  0  0  0  0
 29 30  1  0  0  0  0
M  END
>  <Name_Molregno>
350775

>  <DOPAMINE D2>
6.06

>  <DOPAMINE D3>
6.07

>  <DOPAMINE D4>
6.92

$$$$
350801
  Marvin  02231216192D 0   1.00000     0.00000     0

 23 26  0  0  0  0  0  0  0  0999 V2000
    1.4515   -2.7342    0.0000 F   0  0  0  0  0  0  0  0  0
    1.8640   -2.0197    0.0000 C   0  0  0  0  0  0  0  0  0
    1.4515   -1.3053    0.0000 C   0  0  0  0  0  0  0  0  0
    1.8640   -0.5908    0.0000 C   0  0  0  0  0  0  0  0  0
    2.6890   -0.5908    0.0000 C   0  0  0  0  0  0  0  0  0
    3.1015    0.1237    0.0000 N   0  0  0  0  0  0  0  0  0
    2.6890    0.8382    0.0000 C   0  0  0  0  0  0  0  0  0
    3.1015    1.5526    0.0000 C   0  0  0  0  0  0  0  0  0
    3.9265    1.5526    0.0000 N   0  0  0  0  0  0  0  0  0
    4.3390    0.8382    0.0000 C   0  0  0  0  0  0  0  0  0
    3.9265    0.1237    0.0000 C   0  0  0  0  0  0  0  0  0
    4.3390    2.2671    0.0000 C   0  0  0  0  0  0  0  0  0
    5.1640    2.2671    0.0000 C   0  0  0  0  0  0  0  0  0
    5.6489    1.5997    0.0000 N   0  0  0  0  0  0  0  0  0
    6.4336    1.8546    0.0000 C   0  0  0  0  0  0  0  0  0
    6.4336    2.6796    0.0000 N   0  0  0  0  0  0  0  0  0
    5.6489    2.9345    0.0000 C   0  0  0  0  0  0  0  0  0
    7.1480    3.0921    0.0000 C   0  0  0  0  0  0  0  0  0
    7.8625    2.6796    0.0000 C   0  0  0  0  0  0  0  0  0
    7.8625    1.8546    0.0000 C   0  0  0  0  0  0  0  0  0
    7.1480    1.4421    0.0000 C   0  0  0  0  0  0  0  0  0
    3.1015   -1.3053    0.0000 C   0  0  0  0  0  0  0  0  0
    2.6890   -2.0197    0.0000 C   0  0  0  0  0  0  0  0  0
  1  2  1  0  0  0  0
  2  3  4  0  0  0  0
  2 23  4  0  0  0  0
  3  4  4  0  0  0  0
  4  5  4  0  0  0  0
  5  6  1  0  0  0  0
  5 22  4  0  0  0  0
  6  7  1  0  0  0  0
  6 11  1  0  0  0  0
  7  8  1  0  0  0  0
  8  9  1  0  0  0  0
  9 10  1  0  0  0  0
  9 12  1  0  0  0  0
 10 11  1  0  0  0  0
 12 13  1  0  0  0  0
 13 14  4  0  0  0  0
 13 17  4  0  0  0  0
 14 15  4  0  0  0  0
 15 16  4  0  0  0  0
 15 21  4  0  0  0  0
 16 17  4  0  0  0  0
 16 18  4  0  0  0  0
 18 19  4  0  0  0  0
 19 20  4  0  0  0  0
 20 21  4  0  0  0  0
 22 23  4  0  0  0  0
M  END
>  <Name_Molregno>
350801

>  <DOPAMINE D2>
4.7

>  <DOPAMINE D3>
5.51

>  <DOPAMINE D4>
7.36

$$$$
350802
  Marvin  02231216192D 0   1.00000     0.00000     0

 24 27  0  0  0  0  0  0  0  0999 V2000
    0.3998   -1.8965    0.0000 Cl  0  0  0  0  0  0  0  0  0
    1.2248   -1.8965    0.0000 C   0  0  0  0  0  0  0  0  0
    1.6373   -1.1821    0.0000 C   0  0  0  0  0  0  0  0  0
    2.4623   -1.1821    0.0000 C   0  0  0  0  0  0  0  0  0
    2.8748   -0.4676    0.0000 N   0  0  0  0  0  0  0  0  0
    2.4623    0.2469    0.0000 C   0  0  0  0  0  0  0  0  0
    2.8748    0.9613    0.0000 C   0  0  0  0  0  0  0  0  0
    3.6998    0.9613    0.0000 N   0  0  0  0  0  0  0  0  0
    4.1123    0.2469    0.0000 C   0  0  0  0  0  0  0  0  0
    3.6998   -0.4676    0.0000 C   0  0  0  0  0  0  0  0  0
    4.1123    1.6758    0.0000 C   0  0  0  0  0  0  0  0  0
    4.9373    1.6758    0.0000 C   0  0  0  0  0  0  0  0  0
    5.4222    1.0084    0.0000 N   0  0  0  0  0  0  0  0  0
    6.2069    1.2633    0.0000 C   0  0  0  0  0  0  0  0  0
    6.2069    2.0883    0.0000 N   0  0  0  0  0  0  0  0  0
    5.4222    2.3433    0.0000 C   0  0  0  0  0  0  0  0  0
    6.9213    2.5008    0.0000 C   0  0  0  0  0  0  0  0  0
    7.6358    2.0883    0.0000 C   0  0  0  0  0  0  0  0  0
    7.6358    1.2633    0.0000 C   0  0  0  0  0  0  0  0  0
    6.9213    0.8508    0.0000 C   0  0  0  0  0  0  0  0  0
    2.8748   -1.8965    0.0000 C   0  0  0  0  0  0  0  0  0
    2.4623   -2.6110    0.0000 C   0  0  0  0  0  0  0  0  0
    1.6373   -2.6110    0.0000 C   0  0  0  0  0  0  0  0  0
    1.2248   -3.3255    0.0000 Cl  0  0  0  0  0  0  0  0  0
  1  2  1  0  0  0  0
  2  3  4  0  0  0  0
  2 23  4  0  0  0  0
  3  4  4  0  0  0  0
  4  5  1  0  0  0  0
  4 21  4  0  0  0  0
  5  6  1  0  0  0  0
  5 10  1  0  0  0  0
  6  7  1  0  0  0  0
  7  8  1  0  0  0  0
  8  9  1  0  0  0  0
  8 11  1  0  0  0  0
  9 10  1  0  0  0  0
 11 12  1  0  0  0  0
 12 13  4  0  0  0  0
 12 16  4  0  0  0  0
 13 14  4  0  0  0  0
 14 15  4  0  0  0  0
 14 20  4  0  0  0  0
 15 16  4  0  0  0  0
 15 17  4  0  0  0  0
 17 18  4  0  0  0  0
 18 19  4  0  0  0  0
 19 20  4  0  0  0  0
 21 22  4  0  0  0  0
 22 23  4  0  0  0  0
 23 24  1  0  0  0  0
M  END
>  <Name_Molregno>
350802

>  <DOPAMINE D2>
5.53

>  <DOPAMINE D3>
5.77

>  <DOPAMINE D4>
8.85

$$$$
350803
  Marvin  02231216192D 0   1.00000     0.00000     0

 24 27  0  0  0  0  0  0  0  0999 V2000
   -3.1731   -1.2562    0.0000 O   0  0  0  0  0  0  0  0  0
   -2.7606   -1.9707    0.0000 C   0  0  0  0  0  0  0  0  0
   -3.9981   -1.2562    0.0000 C   0  0  0  0  0  0  0  0  0
   -4.4106   -1.9707    0.0000 C   0  0  0  0  0  0  0  0  0
   -5.2356   -1.9707    0.0000 C   0  0  0  0  0  0  0  0  0
   -5.6481   -1.2562    0.0000 C   0  0  0  0  0  0  0  0  0
   -5.2356   -0.5418    0.0000 C   0  0  0  0  0  0  0  0  0
   -4.4106   -0.5418    0.0000 C   0  0  0  0  0  0  0  0  0
   -3.9981    0.1727    0.0000 N   0  0  0  0  0  0  0  0  0
   -4.4106    0.8872    0.0000 C   0  0  0  0  0  0  0  0  0
   -3.9981    1.6016    0.0000 C   0  0  0  0  0  0  0  0  0
   -3.1731    1.6016    0.0000 N   0  0  0  0  0  0  0  0  0
   -2.7606    0.8872    0.0000 C   0  0  0  0  0  0  0  0  0
   -3.1731    0.1727    0.0000 C   0  0  0  0  0  0  0  0  0
   -2.7606    2.3161    0.0000 C   0  0  0  0  0  0  0  0  0
   -1.9356    2.3161    0.0000 C   0  0  0  0  0  0  0  0  0
   -1.4506    1.6487    0.0000 N   0  0  0  0  0  0  0  0  0
   -0.6660    1.9036    0.0000 C   0  0  0  0  0  0  0  0  0
   -0.6660    2.7286    0.0000 N   0  0  0  0  0  0  0  0  0
   -1.4506    2.9836    0.0000 C   0  0  0  0  0  0  0  0  0
    0.0484    3.1411    0.0000 C   0  0  0  0  0  0  0  0  0
    0.7629    2.7286    0.0000 C   0  0  0  0  0  0  0  0  0
    0.7629    1.9036    0.0000 C   0  0  0  0  0  0  0  0  0
    0.0484    1.4911    0.0000 C   0  0  0  0  0  0  0  0  0
  1  2  1  0  0  0  0
  1  3  1  0  0  0  0
  3  4  4  0  0  0  0
  3  8  4  0  0  0  0
  4  5  4  0  0  0  0
  5  6  4  0  0  0  0
  6  7  4  0  0  0  0
  7  8  4  0  0  0  0
  8  9  1  0  0  0  0
  9 10  1  0  0  0  0
  9 14  1  0  0  0  0
 10 11  1  0  0  0  0
 11 12  1  0  0  0  0
 12 13  1  0  0  0  0
 12 15  1  0  0  0  0
 13 14  1  0  0  0  0
 15 16  1  0  0  0  0
 16 17  4  0  0  0  0
 16 20  4  0  0  0  0
 17 18  4  0  0  0  0
 18 19  4  0  0  0  0
 18 24  4  0  0  0  0
 19 20  4  0  0  0  0
 19 21  4  0  0  0  0
 21 22  4  0  0  0  0
 22 23  4  0  0  0  0
 23 24  4  0  0  0  0
M  END
>  <Name_Molregno>
350803

>  <DOPAMINE D2>
6.33

>  <DOPAMINE D3>
5.41

>  <DOPAMINE D4>
8.55

$$$$
350831
  Marvin  02231216192D 0   1.00000     0.00000     0

 23 26  0  0  0  0  0  0  0  0999 V2000
    1.4515   -2.7342    0.0000 Cl  0  0  0  0  0  0  0  0  0
    1.8640   -2.0197    0.0000 C   0  0  0  0  0  0  0  0  0
    1.4515   -1.3053    0.0000 C   0  0  0  0  0  0  0  0  0
    1.8640   -0.5908    0.0000 C   0  0  0  0  0  0  0  0  0
    2.6890   -0.5908    0.0000 C   0  0  0  0  0  0  0  0  0
    3.1015    0.1237    0.0000 N   0  0  0  0  0  0  0  0  0
    2.6890    0.8382    0.0000 C   0  0  0  0  0  0  0  0  0
    3.1015    1.5526    0.0000 C   0  0  0  0  0  0  0  0  0
    3.9265    1.5526    0.0000 N   0  0  0  0  0  0  0  0  0
    4.3390    0.8382    0.0000 C   0  0  0  0  0  0  0  0  0
    3.9265    0.1237    0.0000 C   0  0  0  0  0  0  0  0  0
    4.3390    2.2671    0.0000 C   0  0  0  0  0  0  0  0  0
    5.1640    2.2671    0.0000 C   0  0  0  0  0  0  0  0  0
    5.6489    1.5997    0.0000 N   0  0  0  0  0  0  0  0  0
    6.4336    1.8546    0.0000 C   0  0  0  0  0  0  0  0  0
    6.4336    2.6796    0.0000 N   0  0  0  0  0  0  0  0  0
    5.6489    2.9345    0.0000 C   0  0  0  0  0  0  0  0  0
    7.1480    3.0921    0.0000 C   0  0  0  0  0  0  0  0  0
    7.8625    2.6796    0.0000 C   0  0  0  0  0  0  0  0  0
    7.8625    1.8546    0.0000 C   0  0  0  0  0  0  0  0  0
    7.1480    1.4421    0.0000 C   0  0  0  0  0  0  0  0  0
    3.1015   -1.3053    0.0000 C   0  0  0  0  0  0  0  0  0
    2.6890   -2.0197    0.0000 C   0  0  0  0  0  0  0  0  0
  1  2  1  0  0  0  0
  2  3  4  0  0  0  0
  2 23  4  0  0  0  0
  3  4  4  0  0  0  0
  4  5  4  0  0  0  0
  5  6  1  0  0  0  0
  5 22  4  0  0  0  0
  6  7  1  0  0  0  0
  6 11  1  0  0  0  0
  7  8  1  0  0  0  0
  8  9  1  0  0  0  0
  9 10  1  0  0  0  0
  9 12  1  0  0  0  0
 10 11  1  0  0  0  0
 12 13  1  0  0  0  0
 13 14  4  0  0  0  0
 13 17  4  0  0  0  0
 14 15  4  0  0  0  0
 15 16  4  0  0  0  0
 15 21  4  0  0  0  0
 16 17  4  0  0  0  0
 16 18  4  0  0  0  0
 18 19  4  0  0  0  0
 19 20  4  0  0  0  0
 20 21  4  0  0  0  0
 22 23  4  0  0  0  0
M  END
>  <Name_Molregno>
350831

>  <DOPAMINE D2>
4.81

>  <DOPAMINE D3>
5.06

>  <DOPAMINE D4>
8.15

$$$$
350862
  Marvin  02231216192D 0   1.00000     0.00000     0

 24 27  0  0  0  0  0  0  0  0999 V2000
    8.5261   -2.9246    0.0000 Cl  0  0  0  0  0  0  0  0  0
    7.8116   -2.5121    0.0000 C   0  0  0  0  0  0  0  0  0
    7.0972   -2.9246    0.0000 N   0  0  0  0  0  0  0  0  0
    6.3827   -2.5121    0.0000 N   0  0  0  0  0  0  0  0  0
    5.5981   -2.7670    0.0000 C   0  0  0  0  0  0  0  0  0
    5.1131   -2.0996    0.0000 C   0  0  0  0  0  0  0  0  0
    5.5981   -1.4321    0.0000 N   0  0  0  0  0  0  0  0  0
    6.3827   -1.6871    0.0000 C   0  0  0  0  0  0  0  0  0
    7.0972   -1.2746    0.0000 C   0  0  0  0  0  0  0  0  0
    7.8116   -1.6871    0.0000 C   0  0  0  0  0  0  0  0  0
    4.2881   -2.0996    0.0000 C   0  0  0  0  0  0  0  0  0
    3.8756   -1.3851    0.0000 N   0  0  0  0  0  0  0  0  0
    3.0506   -1.3851    0.0000 C   0  0  0  0  0  0  0  0  0
    2.6381   -0.6706    0.0000 C   0  0  0  0  0  0  0  0  0
    3.0506    0.0438    0.0000 N   0  0  0  0  0  0  0  0  0
    3.8756    0.0438    0.0000 C   0  0  0  0  0  0  0  0  0
    4.2881   -0.6706    0.0000 C   0  0  0  0  0  0  0  0  0
    2.6381    0.7583    0.0000 C   0  0  0  0  0  0  0  0  0
    1.8131    0.7583    0.0000 C   0  0  0  0  0  0  0  0  0
    1.4006    1.4728    0.0000 C   0  0  0  0  0  0  0  0  0
    1.8131    2.1872    0.0000 C   0  0  0  0  0  0  0  0  0
    1.4006    2.9017    0.0000 F   0  0  0  0  0  0  0  0  0
    2.6381    2.1872    0.0000 C   0  0  0  0  0  0  0  0  0
    3.0506    1.4728    0.0000 C   0  0  0  0  0  0  0  0  0
  1  2  1  0  0  0  0
  2  3  4  0  0  0  0
  2 10  4  0  0  0  0
  3  4  4  0  0  0  0
  4  5  4  0  0  0  0
  4  8  4  0  0  0  0
  5  6  4  0  0  0  0
  6  7  4  0  0  0  0
  6 11  1  0  0  0  0
  7  8  4  0  0  0  0
  8  9  4  0  0  0  0
  9 10  4  0  0  0  0
 11 12  1  0  0  0  0
 12 13  1  0  0  0  0
 12 17  1  0  0  0  0
 13 14  1  0  0  0  0
 14 15  1  0  0  0  0
 15 16  1  0  0  0  0
 15 18  1  0  0  0  0
 16 17  1  0  0  0  0
 18 19  4  0  0  0  0
 18 24  4  0  0  0  0
 19 20  4  0  0  0  0
 20 21  4  0  0  0  0
 21 22  1  0  0  0  0
 21 23  4  0  0  0  0
 23 24  4  0  0  0  0
M  END
>  <Name_Molregno>
350862

>  <DOPAMINE D2>
4.96

>  <DOPAMINE D3>
5.25

>  <DOPAMINE D4>
8.4

$$$$
350867
  Marvin  02231216192D 0   1.00000     0.00000     0

 31 35  0  0  0  0  0  0  0  0999 V2000
   -7.0901    1.8888    0.0000 O   0  0  0  0  0  0  0  0  0
   -7.9151    1.8888    0.0000 C   0  0  0  0  0  0  0  0  0
   -6.6776    2.6033    0.0000 C   0  0  0  0  0  0  0  0  0
   -7.0901    3.3178    0.0000 C   0  0  0  0  0  0  0  0  0
   -6.6776    4.0322    0.0000 C   0  0  0  0  0  0  0  0  0
   -5.8526    4.0322    0.0000 C   0  0  0  0  0  0  0  0  0
   -5.4401    3.3178    0.0000 C   0  0  0  0  0  0  0  0  0
   -5.8526    2.6033    0.0000 C   0  0  0  0  0  0  0  0  0
   -5.4401    1.8888    0.0000 N   0  0  0  0  0  0  0  0  0
   -4.6151    1.8888    0.0000 C   0  0  0  0  0  0  0  0  0
   -4.2026    1.1743    0.0000 C   0  0  0  0  0  0  0  0  0
   -4.6151    0.4599    0.0000 N   0  0  0  0  0  0  0  0  0
   -5.4401    0.4599    0.0000 C   0  0  0  0  0  0  0  0  0
   -5.8526    1.1743    0.0000 C   0  0  0  0  0  0  0  0  0
   -4.2026   -0.2546    0.0000 C   0  0  0  0  0  0  0  0  0
   -3.3776   -0.2546    0.0000 C   0  0  0  0  0  0  0  0  0
   -2.8927   -0.9220    0.0000 N   0  0  0  0  0  0  0  0  0
   -2.1081   -0.6671    0.0000 C   0  0  0  0  0  0  0  0  0
   -2.1081    0.1579    0.0000 N   0  0  0  0  0  0  0  0  0
   -1.3936    0.5704    0.0000 C   0  0  0  0  0  0  0  0  0
   -0.6791    0.1579    0.0000 C   0  0  0  0  0  0  0  0  0
   -0.6791   -0.6671    0.0000 C   0  0  0  0  0  0  0  0  0
   -1.3936   -1.0796    0.0000 C   0  0  0  0  0  0  0  0  0
   -1.3936   -1.9046    0.0000 C   0  0  0  0  0  0  0  0  0
   -0.6791   -2.3171    0.0000 C   0  0  0  0  0  0  0  0  0
   -0.6791   -3.1421    0.0000 C   0  0  0  0  0  0  0  0  0
   -1.3936   -3.5546    0.0000 C   0  0  0  0  0  0  0  0  0
   -2.1081   -3.1421    0.0000 C   0  0  0  0  0  0  0  0  0
   -2.1081   -2.3171    0.0000 C   0  0  0  0  0  0  0  0  0
    0.0354    0.5704    0.0000 C   0  0  0  0  0  0  0  0  0
   -2.8927    0.4128    0.0000 C   0  0  0  0  0  0  0  0  0
  1  2  1  0  0  0  0
  1  3  1  0  0  0  0
  3  4  4  0  0  0  0
  3  8  4  0  0  0  0
  4  5  4  0  0  0  0
  5  6  4  0  0  0  0
  6  7  4  0  0  0  0
  7  8  4  0  0  0  0
  8  9  1  0  0  0  0
  9 10  1  0  0  0  0
  9 14  1  0  0  0  0
 10 11  1  0  0  0  0
 11 12  1  0  0  0  0
 12 13  1  0  0  0  0
 12 15  1  0  0  0  0
 13 14  1  0  0  0  0
 15 16  1  0  0  0  0
 16 17  4  0  0  0  0
 16 31  4  0  0  0  0
 17 18  4  0  0  0  0
 18 19  4  0  0  0  0
 18 23  4  0  0  0  0
 19 20  4  0  0  0  0
 19 31  4  0  0  0  0
 20 21  4  0  0  0  0
 21 22  4  0  0  0  0
 21 30  1  0  0  0  0
 22 23  4  0  0  0  0
 23 24  1  0  0  0  0
 24 25  4  0  0  0  0
 24 29  4  0  0  0  0
 25 26  4  0  0  0  0
 26 27  4  0  0  0  0
 27 28  4  0  0  0  0
 28 29  4  0  0  0  0
M  END
>  <Name_Molregno>
350867

>  <DOPAMINE D2>
7.43

>  <DOPAMINE D3>
6.41

>  <DOPAMINE D4>
9.08

$$$$
350892
  Marvin  02231216192D 0   1.00000     0.00000     0

 25 28  0  0  0  0  0  0  0  0999 V2000
    0.4200   -2.0063    0.0000 Cl  0  0  0  0  0  0  0  0  0
    1.2450   -2.0063    0.0000 C   0  0  0  0  0  0  0  0  0
    1.6575   -1.2918    0.0000 C   0  0  0  0  0  0  0  0  0
    2.4825   -1.2918    0.0000 C   0  0  0  0  0  0  0  0  0
    2.8950   -0.5773    0.0000 N   0  0  0  0  0  0  0  0  0
    2.4825    0.1372    0.0000 C   0  0  0  0  0  0  0  0  0
    2.8950    0.8516    0.0000 C   0  0  0  0  0  0  0  0  0
    3.7200    0.8516    0.0000 N   0  0  0  0  0  0  0  0  0
    4.1325    0.1372    0.0000 C   0  0  0  0  0  0  0  0  0
    3.7200   -0.5773    0.0000 C   0  0  0  0  0  0  0  0  0
    4.1325    1.5661    0.0000 C   0  0  0  0  0  0  0  0  0
    4.9575    1.5661    0.0000 C   0  0  0  0  0  0  0  0  0
    5.4424    0.8987    0.0000 N   0  0  0  0  0  0  0  0  0
    6.2270    1.1536    0.0000 C   0  0  0  0  0  0  0  0  0
    6.2270    1.9786    0.0000 N   0  0  0  0  0  0  0  0  0
    6.9415    2.3911    0.0000 N   0  0  0  0  0  0  0  0  0
    7.6559    1.9786    0.0000 C   0  0  0  0  0  0  0  0  0
    8.3704    2.3911    0.0000 Cl  0  0  0  0  0  0  0  0  0
    7.6559    1.1536    0.0000 C   0  0  0  0  0  0  0  0  0
    6.9415    0.7411    0.0000 C   0  0  0  0  0  0  0  0  0
    5.4424    2.2335    0.0000 C   0  0  0  0  0  0  0  0  0
    2.8950   -2.0063    0.0000 C   0  0  0  0  0  0  0  0  0
    2.4825   -2.7207    0.0000 C   0  0  0  0  0  0  0  0  0
    1.6575   -2.7207    0.0000 C   0  0  0  0  0  0  0  0  0
    1.2450   -3.4352    0.0000 Cl  0  0  0  0  0  0  0  0  0
  1  2  1  0  0  0  0
  2  3  4  0  0  0  0
  2 24  4  0  0  0  0
  3  4  4  0  0  0  0
  4  5  1  0  0  0  0
  4 22  4  0  0  0  0
  5  6  1  0  0  0  0
  5 10  1  0  0  0  0
  6  7  1  0  0  0  0
  7  8  1  0  0  0  0
  8  9  1  0  0  0  0
  8 11  1  0  0  0  0
  9 10  1  0  0  0  0
 11 12  1  0  0  0  0
 12 13  4  0  0  0  0
 12 21  4  0  0  0  0
 13 14  4  0  0  0  0
 14 15  4  0  0  0  0
 14 20  4  0  0  0  0
 15 16  4  0  0  0  0
 15 21  4  0  0  0  0
 16 17  4  0  0  0  0
 17 18  1  0  0  0  0
 17 19  4  0  0  0  0
 19 20  4  0  0  0  0
 22 23  4  0  0  0  0
 23 24  4  0  0  0  0
 24 25  1  0  0  0  0
M  END
>  <Name_Molregno>
350892

>  <DOPAMINE D2>
6.07

>  <DOPAMINE D3>
5.82

>  <DOPAMINE D4>
8.89

$$$$
351082
  Marvin  02231216192D 0   1.00000     0.00000     0

 30 34  0  0  0  0  0  0  0  0999 V2000
   -6.8876    1.8643    0.0000 O   0  0  0  0  0  0  0  0  0
   -7.7126    1.8643    0.0000 C   0  0  0  0  0  0  0  0  0
   -6.4751    2.5788    0.0000 C   0  0  0  0  0  0  0  0  0
   -6.8876    3.2933    0.0000 C   0  0  0  0  0  0  0  0  0
   -6.4751    4.0077    0.0000 C   0  0  0  0  0  0  0  0  0
   -5.6501    4.0077    0.0000 C   0  0  0  0  0  0  0  0  0
   -5.2376    3.2933    0.0000 C   0  0  0  0  0  0  0  0  0
   -5.6501    2.5788    0.0000 C   0  0  0  0  0  0  0  0  0
   -5.2376    1.8643    0.0000 N   0  0  0  0  0  0  0  0  0
   -4.4126    1.8643    0.0000 C   0  0  0  0  0  0  0  0  0
   -4.0001    1.1499    0.0000 C   0  0  0  0  0  0  0  0  0
   -4.4126    0.4354    0.0000 N   0  0  0  0  0  0  0  0  0
   -5.2376    0.4354    0.0000 C   0  0  0  0  0  0  0  0  0
   -5.6501    1.1499    0.0000 C   0  0  0  0  0  0  0  0  0
   -4.0001   -0.2791    0.0000 C   0  0  0  0  0  0  0  0  0
   -3.1751   -0.2791    0.0000 C   0  0  0  0  0  0  0  0  0
   -2.6902   -0.9465    0.0000 N   0  0  0  0  0  0  0  0  0
   -1.9055   -0.6916    0.0000 C   0  0  0  0  0  0  0  0  0
   -1.9055    0.1334    0.0000 N   0  0  0  0  0  0  0  0  0
   -1.1911    0.5459    0.0000 C   0  0  0  0  0  0  0  0  0
   -0.4766    0.1334    0.0000 C   0  0  0  0  0  0  0  0  0
   -0.4766   -0.6916    0.0000 C   0  0  0  0  0  0  0  0  0
   -1.1911   -1.1041    0.0000 C   0  0  0  0  0  0  0  0  0
   -1.1911   -1.9291    0.0000 N   0  0  0  0  0  0  0  0  0
   -0.5236   -2.4140    0.0000 N   0  0  0  0  0  0  0  0  0
   -0.7786   -3.1986    0.0000 C   0  0  0  0  0  0  0  0  0
   -1.6036   -3.1986    0.0000 C   0  0  0  0  0  0  0  0  0
   -1.8585   -2.4140    0.0000 C   0  0  0  0  0  0  0  0  0
    0.2379    0.5459    0.0000 C   0  0  0  0  0  0  0  0  0
   -2.6902    0.3884    0.0000 C   0  0  0  0  0  0  0  0  0
  1  2  1  0  0  0  0
  1  3  1  0  0  0  0
  3  4  4  0  0  0  0
  3  8  4  0  0  0  0
  4  5  4  0  0  0  0
  5  6  4  0  0  0  0
  6  7  4  0  0  0  0
  7  8  4  0  0  0  0
  8  9  1  0  0  0  0
  9 10  1  0  0  0  0
  9 14  1  0  0  0  0
 10 11  1  0  0  0  0
 11 12  1  0  0  0  0
 12 13  1  0  0  0  0
 12 15  1  0  0  0  0
 13 14  1  0  0  0  0
 15 16  1  0  0  0  0
 16 17  4  0  0  0  0
 16 30  4  0  0  0  0
 17 18  4  0  0  0  0
 18 19  4  0  0  0  0
 18 23  4  0  0  0  0
 19 20  4  0  0  0  0
 19 30  4  0  0  0  0
 20 21  4  0  0  0  0
 21 22  4  0  0  0  0
 21 29  1  0  0  0  0
 22 23  4  0  0  0  0
 23 24  1  0  0  0  0
 24 25  4  0  0  0  0
 24 28  4  0  0  0  0
 25 26  4  0  0  0  0
 26 27  4  0  0  0  0
 27 28  4  0  0  0  0
M  END
>  <Name_Molregno>
351082

>  <DOPAMINE D2>
6.42

>  <DOPAMINE D3>
5.62

>  <DOPAMINE D4>
8.8

$$$$
351105
  Marvin  02231216192D 0   1.00000     0.00000     0

 29 33  0  0  0  0  0  0  0  0999 V2000
   -4.3892   -3.1016    0.0000 O   0  0  0  0  0  0  0  0  0
   -3.9767   -3.8161    0.0000 C   0  0  0  0  0  0  0  0  0
   -5.2142   -3.1016    0.0000 C   0  0  0  0  0  0  0  0  0
   -5.6267   -3.8161    0.0000 C   0  0  0  0  0  0  0  0  0
   -6.4517   -3.8161    0.0000 C   0  0  0  0  0  0  0  0  0
   -6.8642   -3.1016    0.0000 C   0  0  0  0  0  0  0  0  0
   -6.4517   -2.3871    0.0000 C   0  0  0  0  0  0  0  0  0
   -5.6267   -2.3871    0.0000 C   0  0  0  0  0  0  0  0  0
   -5.2142   -1.6726    0.0000 N   0  0  0  0  0  0  0  0  0
   -5.6267   -0.9582    0.0000 C   0  0  0  0  0  0  0  0  0
   -5.2142   -0.2437    0.0000 C   0  0  0  0  0  0  0  0  0
   -4.3892   -0.2437    0.0000 N   0  0  0  0  0  0  0  0  0
   -3.9767   -0.9582    0.0000 C   0  0  0  0  0  0  0  0  0
   -4.3892   -1.6726    0.0000 C   0  0  0  0  0  0  0  0  0
   -3.9767    0.4708    0.0000 C   0  0  0  0  0  0  0  0  0
   -3.1517    0.4708    0.0000 C   0  0  0  0  0  0  0  0  0
   -2.6668   -0.1967    0.0000 N   0  0  0  0  0  0  0  0  0
   -1.8822    0.0583    0.0000 C   0  0  0  0  0  0  0  0  0
   -1.8822    0.8833    0.0000 N   0  0  0  0  0  0  0  0  0
   -2.6668    1.1382    0.0000 C   0  0  0  0  0  0  0  0  0
   -1.1677    1.2958    0.0000 C   0  0  0  0  0  0  0  0  0
   -1.1677    2.1208    0.0000 N   0  0  0  0  0  0  0  0  0
   -1.8352    2.6057    0.0000 N   0  0  0  0  0  0  0  0  0
   -1.5802    3.3903    0.0000 C   0  0  0  0  0  0  0  0  0
   -0.7552    3.3903    0.0000 C   0  0  0  0  0  0  0  0  0
   -0.5003    2.6057    0.0000 C   0  0  0  0  0  0  0  0  0
   -0.4532    0.8833    0.0000 C   0  0  0  0  0  0  0  0  0
   -0.4532    0.0583    0.0000 C   0  0  0  0  0  0  0  0  0
   -1.1677   -0.3542    0.0000 C   0  0  0  0  0  0  0  0  0
  1  2  1  0  0  0  0
  1  3  1  0  0  0  0
  3  4  4  0  0  0  0
  3  8  4  0  0  0  0
  4  5  4  0  0  0  0
  5  6  4  0  0  0  0
  6  7  4  0  0  0  0
  7  8  4  0  0  0  0
  8  9  1  0  0  0  0
  9 10  1  0  0  0  0
  9 14  1  0  0  0  0
 10 11  1  0  0  0  0
 11 12  1  0  0  0  0
 12 13  1  0  0  0  0
 12 15  1  0  0  0  0
 13 14  1  0  0  0  0
 15 16  1  0  0  0  0
 16 17  4  0  0  0  0
 16 20  4  0  0  0  0
 17 18  4  0  0  0  0
 18 19  4  0  0  0  0
 18 29  4  0  0  0  0
 19 20  4  0  0  0  0
 19 21  4  0  0  0  0
 21 22  1  0  0  0  0
 21 27  4  0  0  0  0
 22 23  4  0  0  0  0
 22 26  4  0  0  0  0
 23 24  4  0  0  0  0
 24 25  4  0  0  0  0
 25 26  4  0  0  0  0
 27 28  4  0  0  0  0
 28 29  4  0  0  0  0
M  END
>  <Name_Molregno>
351105

>  <DOPAMINE D2>
6.39

>  <DOPAMINE D3>
6

>  <DOPAMINE D4>
9.03

$$$$
351132
  Marvin  02231216192D 0   1.00000     0.00000     0

 25 28  0  0  0  0  0  0  0  0999 V2000
    8.9057   -0.7237    0.0000 Br  0  0  0  0  0  0  0  0  0
    8.1912   -1.1362    0.0000 C   0  0  0  0  0  0  0  0  0
    8.1912   -1.9612    0.0000 C   0  0  0  0  0  0  0  0  0
    7.4767   -2.3737    0.0000 C   0  0  0  0  0  0  0  0  0
    6.7623   -1.9612    0.0000 C   0  0  0  0  0  0  0  0  0
    5.9776   -2.2161    0.0000 N   0  0  0  0  0  0  0  0  0
    5.4927   -1.5487    0.0000 C   0  0  0  0  0  0  0  0  0
    5.9776   -0.8812    0.0000 C   0  0  0  0  0  0  0  0  0
    6.7623   -1.1362    0.0000 N   0  0  0  0  0  0  0  0  0
    7.4767   -0.7237    0.0000 C   0  0  0  0  0  0  0  0  0
    4.6677   -1.5487    0.0000 C   0  0  0  0  0  0  0  0  0
    4.2552   -0.8342    0.0000 N   0  0  0  0  0  0  0  0  0
    3.4302   -0.8342    0.0000 C   0  0  0  0  0  0  0  0  0
    3.0177   -0.1197    0.0000 C   0  0  0  0  0  0  0  0  0
    3.4302    0.5947    0.0000 N   0  0  0  0  0  0  0  0  0
    4.2552    0.5947    0.0000 C   0  0  0  0  0  0  0  0  0
    4.6677   -0.1197    0.0000 C   0  0  0  0  0  0  0  0  0
    3.0177    1.3092    0.0000 C   0  0  0  0  0  0  0  0  0
    2.1927    1.3092    0.0000 C   0  0  0  0  0  0  0  0  0
    1.7802    2.0237    0.0000 C   0  0  0  0  0  0  0  0  0
    0.9552    2.0237    0.0000 Cl  0  0  0  0  0  0  0  0  0
    2.1927    2.7381    0.0000 C   0  0  0  0  0  0  0  0  0
    1.7802    3.4526    0.0000 Cl  0  0  0  0  0  0  0  0  0
    3.0177    2.7381    0.0000 C   0  0  0  0  0  0  0  0  0
    3.4302    2.0237    0.0000 C   0  0  0  0  0  0  0  0  0
  1  2  1  0  0  0  0
  2  3  4  0  0  0  0
  2 10  4  0  0  0  0
  3  4  4  0  0  0  0
  4  5  4  0  0  0  0
  5  6  4  0  0  0  0
  5  9  4  0  0  0  0
  6  7  4  0  0  0  0
  7  8  4  0  0  0  0
  7 11  1  0  0  0  0
  8  9  4  0  0  0  0
  9 10  4  0  0  0  0
 11 12  1  0  0  0  0
 12 13  1  0  0  0  0
 12 17  1  0  0  0  0
 13 14  1  0  0  0  0
 14 15  1  0  0  0  0
 15 16  1  0  0  0  0
 15 18  1  0  0  0  0
 16 17  1  0  0  0  0
 18 19  4  0  0  0  0
 18 25  4  0  0  0  0
 19 20  4  0  0  0  0
 20 21  1  0  0  0  0
 20 22  4  0  0  0  0
 22 23  1  0  0  0  0
 22 24  4  0  0  0  0
 24 25  4  0  0  0  0
M  END
>  <Name_Molregno>
351132

>  <DOPAMINE D2>
5.44

>  <DOPAMINE D3>
6

>  <DOPAMINE D4>
9

$$$$
351164
  Marvin  02231216192D 0   1.00000     0.00000     0

 31 35  0  0  0  0  0  0  0  0999 V2000
    0.5381   -2.5478    0.0000 Cl  0  0  0  0  0  0  0  0  0
    1.3631   -2.5478    0.0000 C   0  0  0  0  0  0  0  0  0
    1.7756   -1.8333    0.0000 C   0  0  0  0  0  0  0  0  0
    2.6006   -1.8333    0.0000 C   0  0  0  0  0  0  0  0  0
    3.0131   -1.1189    0.0000 N   0  0  0  0  0  0  0  0  0
    2.6006   -0.4044    0.0000 C   0  0  0  0  0  0  0  0  0
    3.0131    0.3101    0.0000 C   0  0  0  0  0  0  0  0  0
    3.8381    0.3101    0.0000 N   0  0  0  0  0  0  0  0  0
    4.2506   -0.4044    0.0000 C   0  0  0  0  0  0  0  0  0
    3.8381   -1.1189    0.0000 C   0  0  0  0  0  0  0  0  0
    4.2506    1.0245    0.0000 C   0  0  0  0  0  0  0  0  0
    5.0756    1.0245    0.0000 C   0  0  0  0  0  0  0  0  0
    5.5605    0.3571    0.0000 N   0  0  0  0  0  0  0  0  0
    6.3451    0.6120    0.0000 C   0  0  0  0  0  0  0  0  0
    6.3451    1.4370    0.0000 N   0  0  0  0  0  0  0  0  0
    7.0596    1.8495    0.0000 N   0  0  0  0  0  0  0  0  0
    7.7741    1.4370    0.0000 C   0  0  0  0  0  0  0  0  0
    8.4885    1.8495    0.0000 N   0  0  0  0  0  0  0  0  0
    8.4885    2.6745    0.0000 C   0  0  0  0  0  0  0  0  0
    9.2030    3.0870    0.0000 C   0  0  0  0  0  0  0  0  0
    9.9175    2.6745    0.0000 N   0  0  0  0  0  0  0  0  0
    9.9175    1.8495    0.0000 C   0  0  0  0  0  0  0  0  0
    9.2030    1.4370    0.0000 C   0  0  0  0  0  0  0  0  0
   10.6319    3.0870    0.0000 C   0  0  0  0  0  0  0  0  0
    7.7741    0.6120    0.0000 C   0  0  0  0  0  0  0  0  0
    7.0596    0.1995    0.0000 C   0  0  0  0  0  0  0  0  0
    5.5605    1.6920    0.0000 C   0  0  0  0  0  0  0  0  0
    3.0131   -2.5478    0.0000 C   0  0  0  0  0  0  0  0  0
    2.6006   -3.2623    0.0000 C   0  0  0  0  0  0  0  0  0
    1.7756   -3.2623    0.0000 C   0  0  0  0  0  0  0  0  0
    1.3631   -3.9768    0.0000 Cl  0  0  0  0  0  0  0  0  0
  1  2  1  0  0  0  0
  2  3  4  0  0  0  0
  2 30  4  0  0  0  0
  3  4  4  0  0  0  0
  4  5  1  0  0  0  0
  4 28  4  0  0  0  0
  5  6  1  0  0  0  0
  5 10  1  0  0  0  0
  6  7  1  0  0  0  0
  7  8  1  0  0  0  0
  8  9  1  0  0  0  0
  8 11  1  0  0  0  0
  9 10  1  0  0  0  0
 11 12  1  0  0  0  0
 12 13  4  0  0  0  0
 12 27  4  0  0  0  0
 13 14  4  0  0  0  0
 14 15  4  0  0  0  0
 14 26  4  0  0  0  0
 15 16  4  0  0  0  0
 15 27  4  0  0  0  0
 16 17  4  0  0  0  0
 17 18  1  0  0  0  0
 17 25  4  0  0  0  0
 18 19  1  0  0  0  0
 18 23  1  0  0  0  0
 19 20  1  0  0  0  0
 20 21  1  0  0  0  0
 21 22  1  0  0  0  0
 21 24  1  0  0  0  0
 22 23  1  0  0  0  0
 25 26  4  0  0  0  0
 28 29  4  0  0  0  0
 29 30  4  0  0  0  0
 30 31  1  0  0  0  0
M  END
>  <Name_Molregno>
351164

>  <DOPAMINE D2>
5.11

>  <DOPAMINE D3>
6.06

>  <DOPAMINE D4>
5.72

$$$$
351165
  Marvin  02231216192D 0   1.00000     0.00000     0

 27 30  0  0  0  0  0  0  0  0999 V2000
   -6.2287    1.6956    0.0000 O   0  0  0  0  0  0  0  0  0
   -7.0537    1.6956    0.0000 C   0  0  0  0  0  0  0  0  0
   -5.8162    2.4101    0.0000 C   0  0  0  0  0  0  0  0  0
   -6.2287    3.1245    0.0000 C   0  0  0  0  0  0  0  0  0
   -5.8162    3.8390    0.0000 C   0  0  0  0  0  0  0  0  0
   -4.9912    3.8390    0.0000 C   0  0  0  0  0  0  0  0  0
   -4.5787    3.1245    0.0000 C   0  0  0  0  0  0  0  0  0
   -4.9912    2.4101    0.0000 C   0  0  0  0  0  0  0  0  0
   -4.5787    1.6956    0.0000 N   0  0  0  0  0  0  0  0  0
   -3.7537    1.6956    0.0000 C   0  0  0  0  0  0  0  0  0
   -3.3412    0.9811    0.0000 C   0  0  0  0  0  0  0  0  0
   -3.7537    0.2666    0.0000 N   0  0  0  0  0  0  0  0  0
   -4.5787    0.2666    0.0000 C   0  0  0  0  0  0  0  0  0
   -4.9912    0.9811    0.0000 C   0  0  0  0  0  0  0  0  0
   -3.3412   -0.4478    0.0000 C   0  0  0  0  0  0  0  0  0
   -2.5162   -0.4478    0.0000 C   0  0  0  0  0  0  0  0  0
   -2.0313   -1.1153    0.0000 N   0  0  0  0  0  0  0  0  0
   -1.2466   -0.8603    0.0000 C   0  0  0  0  0  0  0  0  0
   -1.2466   -0.0353    0.0000 N   0  0  0  0  0  0  0  0  0
   -0.5322    0.3772    0.0000 C   0  0  0  0  0  0  0  0  0
    0.1823   -0.0353    0.0000 C   0  0  0  0  0  0  0  0  0
    0.1823   -0.8603    0.0000 C   0  0  0  0  0  0  0  0  0
   -0.5322   -1.2728    0.0000 C   0  0  0  0  0  0  0  0  0
   -0.5322   -2.0978    0.0000 C   0  0  0  0  0  0  0  0  0
   -0.5322   -2.9228    0.0000 N   0  0  0  0  0  0  0  0  0
    0.8968    0.3772    0.0000 C   0  0  0  0  0  0  0  0  0
   -2.0313    0.2196    0.0000 C   0  0  0  0  0  0  0  0  0
  1  2  1  0  0  0  0
  1  3  1  0  0  0  0
  3  4  4  0  0  0  0
  3  8  4  0  0  0  0
  4  5  4  0  0  0  0
  5  6  4  0  0  0  0
  6  7  4  0  0  0  0
  7  8  4  0  0  0  0
  8  9  1  0  0  0  0
  9 10  1  0  0  0  0
  9 14  1  0  0  0  0
 10 11  1  0  0  0  0
 11 12  1  0  0  0  0
 12 13  1  0  0  0  0
 12 15  1  0  0  0  0
 13 14  1  0  0  0  0
 15 16  1  0  0  0  0
 16 17  4  0  0  0  0
 16 27  4  0  0  0  0
 17 18  4  0  0  0  0
 18 19  4  0  0  0  0
 18 23  4  0  0  0  0
 19 20  4  0  0  0  0
 19 27  4  0  0  0  0
 20 21  4  0  0  0  0
 21 22  4  0  0  0  0
 21 26  1  0  0  0  0
 22 23  4  0  0  0  0
 23 24  1  0  0  0  0
 24 25  3  0  0  0  0
M  END
>  <Name_Molregno>
351165

>  <DOPAMINE D2>
5.48

>  <DOPAMINE D3>
5.46

>  <DOPAMINE D4>
8.89

$$$$
351216
  Marvin  02231216192D 0   1.00000     0.00000     0

 25 28  0  0  0  0  0  0  0  0999 V2000
    8.5613   -2.7166    0.0000 Cl  0  0  0  0  0  0  0  0  0
    7.8468   -2.3041    0.0000 C   0  0  0  0  0  0  0  0  0
    7.1324   -2.7166    0.0000 N   0  0  0  0  0  0  0  0  0
    6.4179   -2.3041    0.0000 N   0  0  0  0  0  0  0  0  0
    5.6333   -2.5590    0.0000 C   0  0  0  0  0  0  0  0  0
    5.1483   -1.8916    0.0000 C   0  0  0  0  0  0  0  0  0
    5.6333   -1.2241    0.0000 N   0  0  0  0  0  0  0  0  0
    6.4179   -1.4791    0.0000 C   0  0  0  0  0  0  0  0  0
    7.1324   -1.0666    0.0000 C   0  0  0  0  0  0  0  0  0
    7.8468   -1.4791    0.0000 C   0  0  0  0  0  0  0  0  0
    4.3233   -1.8916    0.0000 C   0  0  0  0  0  0  0  0  0
    3.9108   -1.1771    0.0000 N   0  0  0  0  0  0  0  0  0
    3.0858   -1.1771    0.0000 C   0  0  0  0  0  0  0  0  0
    2.6733   -0.4626    0.0000 C   0  0  0  0  0  0  0  0  0
    3.0858    0.2518    0.0000 N   0  0  0  0  0  0  0  0  0
    3.9108    0.2518    0.0000 C   0  0  0  0  0  0  0  0  0
    4.3233   -0.4626    0.0000 C   0  0  0  0  0  0  0  0  0
    2.6733    0.9663    0.0000 C   0  0  0  0  0  0  0  0  0
    1.8483    0.9663    0.0000 C   0  0  0  0  0  0  0  0  0
    1.4358    1.6808    0.0000 C   0  0  0  0  0  0  0  0  0
    1.8483    2.3953    0.0000 C   0  0  0  0  0  0  0  0  0
    2.6733    2.3953    0.0000 C   0  0  0  0  0  0  0  0  0
    3.0858    1.6808    0.0000 C   0  0  0  0  0  0  0  0  0
    3.9108    1.6808    0.0000 O   0  0  0  0  0  0  0  0  0
    4.3233    2.3953    0.0000 C   0  0  0  0  0  0  0  0  0
  1  2  1  0  0  0  0
  2  3  4  0  0  0  0
  2 10  4  0  0  0  0
  3  4  4  0  0  0  0
  4  5  4  0  0  0  0
  4  8  4  0  0  0  0
  5  6  4  0  0  0  0
  6  7  4  0  0  0  0
  6 11  1  0  0  0  0
  7  8  4  0  0  0  0
  8  9  4  0  0  0  0
  9 10  4  0  0  0  0
 11 12  1  0  0  0  0
 12 13  1  0  0  0  0
 12 17  1  0  0  0  0
 13 14  1  0  0  0  0
 14 15  1  0  0  0  0
 15 16  1  0  0  0  0
 15 18  1  0  0  0  0
 16 17  1  0  0  0  0
 18 19  4  0  0  0  0
 18 23  4  0  0  0  0
 19 20  4  0  0  0  0
 20 21  4  0  0  0  0
 21 22  4  0  0  0  0
 22 23  4  0  0  0  0
 23 24  1  0  0  0  0
 24 25  1  0  0  0  0
M  END
>  <Name_Molregno>
351216

>  <DOPAMINE D2>
7.06

>  <DOPAMINE D3>
5.85

>  <DOPAMINE D4>
8.8

$$$$
351217
  Marvin  02231216192D 0   1.00000     0.00000     0

 25 28  0  0  0  0  0  0  0  0999 V2000
    8.5613   -0.3128    0.0000 Br  0  0  0  0  0  0  0  0  0
    7.8468   -0.7253    0.0000 C   0  0  0  0  0  0  0  0  0
    7.8468   -1.5503    0.0000 C   0  0  0  0  0  0  0  0  0
    7.1324   -1.9628    0.0000 C   0  0  0  0  0  0  0  0  0
    6.4179   -1.5503    0.0000 C   0  0  0  0  0  0  0  0  0
    5.6333   -1.8052    0.0000 N   0  0  0  0  0  0  0  0  0
    5.1483   -1.1378    0.0000 C   0  0  0  0  0  0  0  0  0
    5.6333   -0.4704    0.0000 C   0  0  0  0  0  0  0  0  0
    6.4179   -0.7253    0.0000 N   0  0  0  0  0  0  0  0  0
    7.1324   -0.3128    0.0000 C   0  0  0  0  0  0  0  0  0
    4.3233   -1.1378    0.0000 C   0  0  0  0  0  0  0  0  0
    3.9108   -0.4233    0.0000 N   0  0  0  0  0  0  0  0  0
    3.0858   -0.4233    0.0000 C   0  0  0  0  0  0  0  0  0
    2.6733    0.2911    0.0000 C   0  0  0  0  0  0  0  0  0
    3.0858    1.0056    0.0000 N   0  0  0  0  0  0  0  0  0
    3.9108    1.0056    0.0000 C   0  0  0  0  0  0  0  0  0
    4.3233    0.2911    0.0000 C   0  0  0  0  0  0  0  0  0
    2.6733    1.7201    0.0000 C   0  0  0  0  0  0  0  0  0
    1.8483    1.7201    0.0000 C   0  0  0  0  0  0  0  0  0
    1.4358    2.4346    0.0000 C   0  0  0  0  0  0  0  0  0
    1.8483    3.1490    0.0000 C   0  0  0  0  0  0  0  0  0
    2.6733    3.1490    0.0000 C   0  0  0  0  0  0  0  0  0
    3.0858    2.4346    0.0000 C   0  0  0  0  0  0  0  0  0
    3.9108    2.4346    0.0000 O   0  0  0  0  0  0  0  0  0
    4.3233    3.1490    0.0000 C   0  0  0  0  0  0  0  0  0
  1  2  1  0  0  0  0
  2  3  4  0  0  0  0
  2 10  4  0  0  0  0
  3  4  4  0  0  0  0
  4  5  4  0  0  0  0
  5  6  4  0  0  0  0
  5  9  4  0  0  0  0
  6  7  4  0  0  0  0
  7  8  4  0  0  0  0
  7 11  1  0  0  0  0
  8  9  4  0  0  0  0
  9 10  4  0  0  0  0
 11 12  1  0  0  0  0
 12 13  1  0  0  0  0
 12 17  1  0  0  0  0
 13 14  1  0  0  0  0
 14 15  1  0  0  0  0
 15 16  1  0  0  0  0
 15 18  1  0  0  0  0
 16 17  1  0  0  0  0
 18 19  4  0  0  0  0
 18 23  4  0  0  0  0
 19 20  4  0  0  0  0
 20 21  4  0  0  0  0
 21 22  4  0  0  0  0
 22 23  4  0  0  0  0
 23 24  1  0  0  0  0
 24 25  1  0  0  0  0
M  END
>  <Name_Molregno>
351217

>  <DOPAMINE D2>
6.87

>  <DOPAMINE D3>
6.1

>  <DOPAMINE D4>
9.6

$$$$
351218
  Marvin  02231216192D 0   1.00000     0.00000     0

 25 28  0  0  0  0  0  0  0  0999 V2000
    8.5613   -0.3128    0.0000 I   0  0  0  0  0  0  0  0  0
    7.8468   -0.7253    0.0000 C   0  0  0  0  0  0  0  0  0
    7.8468   -1.5503    0.0000 C   0  0  0  0  0  0  0  0  0
    7.1324   -1.9628    0.0000 C   0  0  0  0  0  0  0  0  0
    6.4179   -1.5503    0.0000 C   0  0  0  0  0  0  0  0  0
    5.6333   -1.8052    0.0000 N   0  0  0  0  0  0  0  0  0
    5.1483   -1.1378    0.0000 C   0  0  0  0  0  0  0  0  0
    5.6333   -0.4704    0.0000 C   0  0  0  0  0  0  0  0  0
    6.4179   -0.7253    0.0000 N   0  0  0  0  0  0  0  0  0
    7.1324   -0.3128    0.0000 C   0  0  0  0  0  0  0  0  0
    4.3233   -1.1378    0.0000 C   0  0  0  0  0  0  0  0  0
    3.9108   -0.4233    0.0000 N   0  0  0  0  0  0  0  0  0
    3.0858   -0.4233    0.0000 C   0  0  0  0  0  0  0  0  0
    2.6733    0.2911    0.0000 C   0  0  0  0  0  0  0  0  0
    3.0858    1.0056    0.0000 N   0  0  0  0  0  0  0  0  0
    3.9108    1.0056    0.0000 C   0  0  0  0  0  0  0  0  0
    4.3233    0.2911    0.0000 C   0  0  0  0  0  0  0  0  0
    2.6733    1.7201    0.0000 C   0  0  0  0  0  0  0  0  0
    1.8483    1.7201    0.0000 C   0  0  0  0  0  0  0  0  0
    1.4358    2.4346    0.0000 C   0  0  0  0  0  0  0  0  0
    1.8483    3.1490    0.0000 C   0  0  0  0  0  0  0  0  0
    2.6733    3.1490    0.0000 C   0  0  0  0  0  0  0  0  0
    3.0858    2.4346    0.0000 C   0  0  0  0  0  0  0  0  0
    3.9108    2.4346    0.0000 O   0  0  0  0  0  0  0  0  0
    4.3233    3.1490    0.0000 C   0  0  0  0  0  0  0  0  0
  1  2  1  0  0  0  0
  2  3  4  0  0  0  0
  2 10  4  0  0  0  0
  3  4  4  0  0  0  0
  4  5  4  0  0  0  0
  5  6  4  0  0  0  0
  5  9  4  0  0  0  0
  6  7  4  0  0  0  0
  7  8  4  0  0  0  0
  7 11  1  0  0  0  0
  8  9  4  0  0  0  0
  9 10  4  0  0  0  0
 11 12  1  0  0  0  0
 12 13  1  0  0  0  0
 12 17  1  0  0  0  0
 13 14  1  0  0  0  0
 14 15  1  0  0  0  0
 15 16  1  0  0  0  0
 15 18  1  0  0  0  0
 16 17  1  0  0  0  0
 18 19  4  0  0  0  0
 18 23  4  0  0  0  0
 19 20  4  0  0  0  0
 20 21  4  0  0  0  0
 21 22  4  0  0  0  0
 22 23  4  0  0  0  0
 23 24  1  0  0  0  0
 24 25  1  0  0  0  0
M  END
>  <Name_Molregno>
351218

>  <DOPAMINE D2>
7.14

>  <DOPAMINE D3>
6.22

>  <DOPAMINE D4>
9.48

$$$$
351219
  Marvin  02231216192D 0   1.00000     0.00000     0

 31 35  0  0  0  0  0  0  0  0999 V2000
    6.4745    1.6877    0.0000 O   0  0  0  0  0  0  0  0  0
    7.1889    1.2752    0.0000 C   0  0  0  0  0  0  0  0  0
    7.1889    0.4502    0.0000 C   0  0  0  0  0  0  0  0  0
    6.4745    0.0377    0.0000 N   0  0  0  0  0  0  0  0  0
    5.7600    0.4502    0.0000 C   0  0  0  0  0  0  0  0  0
    5.7600    1.2752    0.0000 C   0  0  0  0  0  0  0  0  0
    6.4745   -0.7873    0.0000 C   0  0  0  0  0  0  0  0  0
    7.1889   -1.1998    0.0000 C   0  0  0  0  0  0  0  0  0
    7.1889   -2.0248    0.0000 C   0  0  0  0  0  0  0  0  0
    6.4745   -2.4373    0.0000 C   0  0  0  0  0  0  0  0  0
    5.7600   -2.0248    0.0000 N   0  0  0  0  0  0  0  0  0
    5.7600   -1.1998    0.0000 C   0  0  0  0  0  0  0  0  0
    4.9754   -0.9448    0.0000 N   0  0  0  0  0  0  0  0  0
    4.4905   -1.6123    0.0000 C   0  0  0  0  0  0  0  0  0
    4.9754   -2.2797    0.0000 C   0  0  0  0  0  0  0  0  0
    3.6655   -1.6123    0.0000 C   0  0  0  0  0  0  0  0  0
    3.2530   -0.8978    0.0000 N   0  0  0  0  0  0  0  0  0
    2.4280   -0.8978    0.0000 C   0  0  0  0  0  0  0  0  0
    2.0155   -0.1833    0.0000 C   0  0  0  0  0  0  0  0  0
    2.4280    0.5312    0.0000 N   0  0  0  0  0  0  0  0  0
    3.2530    0.5312    0.0000 C   0  0  0  0  0  0  0  0  0
    3.6655   -0.1833    0.0000 C   0  0  0  0  0  0  0  0  0
    2.0155    1.2456    0.0000 C   0  0  0  0  0  0  0  0  0
    1.1905    1.2456    0.0000 C   0  0  0  0  0  0  0  0  0
    0.7780    1.9601    0.0000 C   0  0  0  0  0  0  0  0  0
    1.1905    2.6746    0.0000 C   0  0  0  0  0  0  0  0  0
    2.0155    2.6746    0.0000 C   0  0  0  0  0  0  0  0  0
    2.4280    1.9601    0.0000 C   0  0  0  0  0  0  0  0  0
    3.2530    1.9601    0.0000 O   0  0  0  0  0  0  0  0  0
    3.6655    2.6746    0.0000 C   0  0  0  0  0  0  0  0  0
    7.9034   -2.4373    0.0000 C   0  0  0  0  0  0  0  0  0
  1  2  1  0  0  0  0
  1  6  1  0  0  0  0
  2  3  1  0  0  0  0
  3  4  1  0  0  0  0
  4  5  1  0  0  0  0
  4  7  1  0  0  0  0
  5  6  1  0  0  0  0
  7  8  4  0  0  0  0
  7 12  4  0  0  0  0
  8  9  4  0  0  0  0
  9 10  4  0  0  0  0
  9 31  1  0  0  0  0
 10 11  4  0  0  0  0
 11 12  4  0  0  0  0
 11 15  4  0  0  0  0
 12 13  4  0  0  0  0
 13 14  4  0  0  0  0
 14 15  4  0  0  0  0
 14 16  1  0  0  0  0
 16 17  1  0  0  0  0
 17 18  1  0  0  0  0
 17 22  1  0  0  0  0
 18 19  1  0  0  0  0
 19 20  1  0  0  0  0
 20 21  1  0  0  0  0
 20 23  1  0  0  0  0
 21 22  1  0  0  0  0
 23 24  4  0  0  0  0
 23 28  4  0  0  0  0
 24 25  4  0  0  0  0
 25 26  4  0  0  0  0
 26 27  4  0  0  0  0
 27 28  4  0  0  0  0
 28 29  1  0  0  0  0
 29 30  1  0  0  0  0
M  END
>  <Name_Molregno>
351219

>  <DOPAMINE D2>
6.84

>  <DOPAMINE D3>
5.68

>  <DOPAMINE D4>
8.64

$$$$
355507
  Marvin  02231216192D 0   1.00000     0.00000     0

 26 28  0  0  1  0  0  0  0  0999 V2000
    2.4213    2.7741    0.0000 Cl  0  0  0  0  0  0  0  0  0
    2.4213    1.9491    0.0000 C   0  0  0  0  0  0  0  0  0
    3.1357    1.5366    0.0000 C   0  0  0  0  0  0  0  0  0
    3.1357    0.7116    0.0000 C   0  0  0  0  0  0  0  0  0
    2.4213    0.2991    0.0000 C   0  0  0  0  0  0  0  0  0
    1.7068    0.7116    0.0000 C   0  0  0  0  0  0  0  0  0
    1.7068    1.5366    0.0000 C   0  0  0  0  0  0  0  0  0
    2.4213   -0.5259    0.0000 C   0  0  0  0  0  0  0  0  0
    1.7068   -0.9384    0.0000 N   0  0  0  0  0  0  0  0  0
    0.9923   -0.5259    0.0000 O   0  0  0  0  0  0  0  0  0
    0.2778   -0.9384    0.0000 C   0  0  0  0  0  0  0  0  0
    3.1357   -0.9384    0.0000 C   0  0  0  0  0  0  0  0  0
    3.1357   -1.7634    0.0000 O   0  0  0  0  0  0  0  0  0
    3.8502   -0.5259    0.0000 C   0  0  0  0  0  0  0  0  0
    4.5647   -0.9384    0.0000 N   0  0  0  0  0  0  0  0  0
    5.2791   -0.5259    0.0000 C   0  0  0  0  0  0  0  0  0
    5.9936   -0.9384    0.0000 C   0  0  0  0  0  0  0  0  0
    5.9936   -1.7634    0.0000 N   0  0  0  0  0  0  0  0  0
    5.2791   -2.1759    0.0000 C   0  0  0  0  0  0  0  0  0
    4.5647   -1.7634    0.0000 C   0  0  0  0  0  0  0  0  0
    6.7081   -2.1759    0.0000 C   0  0  0  0  0  0  0  0  0
    7.4226   -1.7634    0.0000 N   0  0  0  0  0  0  0  0  0
    8.1370   -2.1759    0.0000 C   0  0  0  0  0  0  0  0  0
    8.1370   -3.0009    0.0000 C   0  0  0  0  0  0  0  0  0
    7.4226   -3.4134    0.0000 C   0  0  0  0  0  0  0  0  0
    6.7081   -3.0009    0.0000 C   0  0  0  0  0  0  0  0  0
  1  2  1  0  0  0  0
  2  3  4  0  0  0  0
  2  7  4  0  0  0  0
  3  4  4  0  0  0  0
  4  5  4  0  0  0  0
  5  6  4  0  0  0  0
  5  8  1  0  0  0  0
  6  7  4  0  0  0  0
  8  9  2  0  0  0  0
  8 12  1  0  0  0  0
  9 10  1  0  0  0  0
 10 11  1  0  0  0  0
 12 13  1  0  0  0  0
 12 14  1  0  0  0  0
 14 15  1  0  0  0  0
 15 16  1  0  0  0  0
 15 20  1  0  0  0  0
 16 17  1  0  0  0  0
 17 18  1  0  0  0  0
 18 19  1  0  0  0  0
 18 21  1  0  0  0  0
 19 20  1  0  0  0  0
 21 22  4  0  0  0  0
 21 26  4  0  0  0  0
 22 23  4  0  0  0  0
 23 24  4  0  0  0  0
 24 25  4  0  0  0  0
 25 26  4  0  0  0  0
M  END
>  <Name_Molregno>
355507

>  <DOPAMINE D2>
6.21

>  <DOPAMINE D4>
6.89

$$$$
355531
  Marvin  02231216192D 0   1.00000     0.00000     0

 26 28  0  0  0  0  0  0  0  0999 V2000
    1.6780    1.8296    0.0000 F   0  0  0  0  0  0  0  0  0
    1.6780    1.0046    0.0000 C   0  0  0  0  0  0  0  0  0
    2.3925    0.5921    0.0000 C   0  0  0  0  0  0  0  0  0
    2.3925   -0.2329    0.0000 C   0  0  0  0  0  0  0  0  0
    1.6780   -0.6454    0.0000 C   0  0  0  0  0  0  0  0  0
    0.9635   -0.2329    0.0000 C   0  0  0  0  0  0  0  0  0
    0.2490   -0.6454    0.0000 F   0  0  0  0  0  0  0  0  0
    0.9635    0.5921    0.0000 C   0  0  0  0  0  0  0  0  0
    3.1069   -0.6454    0.0000 C   0  0  0  0  0  0  0  0  0
    3.1069   -1.4704    0.0000 N   0  0  0  0  0  0  0  0  0
    2.3925   -1.8829    0.0000 O   0  0  0  0  0  0  0  0  0
    2.3925   -2.7079    0.0000 C   0  0  0  0  0  0  0  0  0
    3.8214   -0.2329    0.0000 C   0  0  0  0  0  0  0  0  0
    3.8214    0.5921    0.0000 C   0  0  0  0  0  0  0  0  0
    4.5359    1.0046    0.0000 N   0  0  0  0  0  0  0  0  0
    4.5359    1.8296    0.0000 C   0  0  0  0  0  0  0  0  0
    5.2503    2.2421    0.0000 C   0  0  0  0  0  0  0  0  0
    5.9648    1.8296    0.0000 N   0  0  0  0  0  0  0  0  0
    5.9648    1.0046    0.0000 C   0  0  0  0  0  0  0  0  0
    5.2503    0.5921    0.0000 C   0  0  0  0  0  0  0  0  0
    6.6793    2.2421    0.0000 C   0  0  0  0  0  0  0  0  0
    6.6793    3.0671    0.0000 N   0  0  0  0  0  0  0  0  0
    7.3938    3.4796    0.0000 C   0  0  0  0  0  0  0  0  0
    8.1082    3.0671    0.0000 C   0  0  0  0  0  0  0  0  0
    8.1082    2.2421    0.0000 C   0  0  0  0  0  0  0  0  0
    7.3938    1.8296    0.0000 C   0  0  0  0  0  0  0  0  0
  1  2  1  0  0  0  0
  2  3  4  0  0  0  0
  2  8  4  0  0  0  0
  3  4  4  0  0  0  0
  4  5  4  0  0  0  0
  4  9  1  0  0  0  0
  5  6  4  0  0  0  0
  6  7  1  0  0  0  0
  6  8  4  0  0  0  0
  9 10  2  0  0  0  0
  9 13  1  0  0  0  0
 10 11  1  0  0  0  0
 11 12  1  0  0  0  0
 13 14  1  0  0  0  0
 14 15  1  0  0  0  0
 15 16  1  0  0  0  0
 15 20  1  0  0  0  0
 16 17  1  0  0  0  0
 17 18  1  0  0  0  0
 18 19  1  0  0  0  0
 18 21  1  0  0  0  0
 19 20  1  0  0  0  0
 21 22  4  0  0  0  0
 21 26  4  0  0  0  0
 22 23  4  0  0  0  0
 23 24  4  0  0  0  0
 24 25  4  0  0  0  0
 25 26  4  0  0  0  0
M  END
>  <Name_Molregno>
355531

>  <DOPAMINE D2>
6.77

>  <DOPAMINE D4>
7.58

$$$$
355566
  Marvin  02231216192D 0   1.00000     0.00000     0

 24 26  0  0  0  0  0  0  0  0999 V2000
    4.1278    4.6496    0.0000 F   0  0  0  0  0  0  0  0  0
    4.1278    3.8246    0.0000 C   0  0  0  0  0  0  0  0  0
    4.8422    3.4121    0.0000 C   0  0  0  0  0  0  0  0  0
    4.8422    2.5871    0.0000 C   0  0  0  0  0  0  0  0  0
    4.1278    2.1746    0.0000 C   0  0  0  0  0  0  0  0  0
    3.4133    2.5871    0.0000 C   0  0  0  0  0  0  0  0  0
    3.4133    3.4121    0.0000 C   0  0  0  0  0  0  0  0  0
    4.1278    1.3496    0.0000 C   0  0  0  0  0  0  0  0  0
    3.4133    0.9371    0.0000 N   0  0  0  0  0  0  0  0  0
    2.6988    1.3496    0.0000 O   0  0  0  0  0  0  0  0  0
    1.9843    0.9371    0.0000 C   0  0  0  0  0  0  0  0  0
    4.8422    0.9371    0.0000 C   0  0  0  0  0  0  0  0  0
    4.8422    0.1121    0.0000 N   0  0  0  0  0  0  0  0  0
    5.5567   -0.3004    0.0000 C   0  0  0  0  0  0  0  0  0
    5.5567   -1.1254    0.0000 C   0  0  0  0  0  0  0  0  0
    4.8422   -1.5379    0.0000 N   0  0  0  0  0  0  0  0  0
    4.1278   -1.1254    0.0000 C   0  0  0  0  0  0  0  0  0
    4.1278   -0.3004    0.0000 C   0  0  0  0  0  0  0  0  0
    4.8422   -2.3629    0.0000 C   0  0  0  0  0  0  0  0  0
    5.5567   -2.7754    0.0000 N   0  0  0  0  0  0  0  0  0
    5.5567   -3.6004    0.0000 C   0  0  0  0  0  0  0  0  0
    4.8422   -4.0129    0.0000 C   0  0  0  0  0  0  0  0  0
    4.1278   -3.6004    0.0000 C   0  0  0  0  0  0  0  0  0
    4.1278   -2.7754    0.0000 C   0  0  0  0  0  0  0  0  0
  1  2  1  0  0  0  0
  2  3  4  0  0  0  0
  2  7  4  0  0  0  0
  3  4  4  0  0  0  0
  4  5  4  0  0  0  0
  5  6  4  0  0  0  0
  5  8  1  0  0  0  0
  6  7  4  0  0  0  0
  8  9  2  0  0  0  0
  8 12  1  0  0  0  0
  9 10  1  0  0  0  0
 10 11  1  0  0  0  0
 12 13  1  0  0  0  0
 13 14  1  0  0  0  0
 13 18  1  0  0  0  0
 14 15  1  0  0  0  0
 15 16  1  0  0  0  0
 16 17  1  0  0  0  0
 16 19  1  0  0  0  0
 17 18  1  0  0  0  0
 19 20  4  0  0  0  0
 19 24  4  0  0  0  0
 20 21  4  0  0  0  0
 21 22  4  0  0  0  0
 22 23  4  0  0  0  0
 23 24  4  0  0  0  0
M  END
>  <Name_Molregno>
355566

>  <DOPAMINE D2>
5.6

>  <DOPAMINE D4>
5.69

$$$$
355626
  Marvin  02231216192D 0   1.00000     0.00000     0

 26 28  0  0  0  0  0  0  0  0999 V2000
    1.6295    1.7076    0.0000 Cl  0  0  0  0  0  0  0  0  0
    1.6295    0.8826    0.0000 C   0  0  0  0  0  0  0  0  0
    2.3440    0.4701    0.0000 C   0  0  0  0  0  0  0  0  0
    2.3440   -0.3549    0.0000 C   0  0  0  0  0  0  0  0  0
    1.6295   -0.7674    0.0000 C   0  0  0  0  0  0  0  0  0
    0.9150   -0.3549    0.0000 C   0  0  0  0  0  0  0  0  0
    0.9150    0.4701    0.0000 C   0  0  0  0  0  0  0  0  0
    0.2006    0.8826    0.0000 F   0  0  0  0  0  0  0  0  0
    3.0584   -0.7674    0.0000 C   0  0  0  0  0  0  0  0  0
    3.0584   -1.5924    0.0000 N   0  0  0  0  0  0  0  0  0
    2.3440   -2.0049    0.0000 O   0  0  0  0  0  0  0  0  0
    2.3440   -2.8299    0.0000 C   0  0  0  0  0  0  0  0  0
    3.7729   -0.3549    0.0000 C   0  0  0  0  0  0  0  0  0
    3.7729    0.4701    0.0000 C   0  0  0  0  0  0  0  0  0
    4.4874    0.8826    0.0000 N   0  0  0  0  0  0  0  0  0
    4.4874    1.7076    0.0000 C   0  0  0  0  0  0  0  0  0
    5.2019    2.1201    0.0000 C   0  0  0  0  0  0  0  0  0
    5.9163    1.7076    0.0000 N   0  0  0  0  0  0  0  0  0
    5.9163    0.8826    0.0000 C   0  0  0  0  0  0  0  0  0
    5.2019    0.4701    0.0000 C   0  0  0  0  0  0  0  0  0
    6.6308    2.1201    0.0000 C   0  0  0  0  0  0  0  0  0
    6.6308    2.9451    0.0000 N   0  0  0  0  0  0  0  0  0
    7.3453    3.3576    0.0000 C   0  0  0  0  0  0  0  0  0
    8.0597    2.9451    0.0000 C   0  0  0  0  0  0  0  0  0
    8.0597    2.1201    0.0000 C   0  0  0  0  0  0  0  0  0
    7.3453    1.7076    0.0000 C   0  0  0  0  0  0  0  0  0
  1  2  1  0  0  0  0
  2  3  4  0  0  0  0
  2  7  4  0  0  0  0
  3  4  4  0  0  0  0
  4  5  4  0  0  0  0
  4  9  1  0  0  0  0
  5  6  4  0  0  0  0
  6  7  4  0  0  0  0
  7  8  1  0  0  0  0
  9 10  2  0  0  0  0
  9 13  1  0  0  0  0
 10 11  1  0  0  0  0
 11 12  1  0  0  0  0
 13 14  1  0  0  0  0
 14 15  1  0  0  0  0
 15 16  1  0  0  0  0
 15 20  1  0  0  0  0
 16 17  1  0  0  0  0
 17 18  1  0  0  0  0
 18 19  1  0  0  0  0
 18 21  1  0  0  0  0
 19 20  1  0  0  0  0
 21 22  4  0  0  0  0
 21 26  4  0  0  0  0
 22 23  4  0  0  0  0
 23 24  4  0  0  0  0
 24 25  4  0  0  0  0
 25 26  4  0  0  0  0
M  END
>  <Name_Molregno>
355626

>  <DOPAMINE D2>
6.77

>  <DOPAMINE D4>
7.15

$$$$
355664
  Marvin  02231216192D 0   1.00000     0.00000     0

 26 28  0  0  0  0  0  0  0  0999 V2000
    1.6295    1.7076    0.0000 Cl  0  0  0  0  0  0  0  0  0
    1.6295    0.8826    0.0000 C   0  0  0  0  0  0  0  0  0
    2.3440    0.4701    0.0000 C   0  0  0  0  0  0  0  0  0
    2.3440   -0.3549    0.0000 C   0  0  0  0  0  0  0  0  0
    1.6295   -0.7674    0.0000 C   0  0  0  0  0  0  0  0  0
    0.9150   -0.3549    0.0000 C   0  0  0  0  0  0  0  0  0
    0.9150    0.4701    0.0000 C   0  0  0  0  0  0  0  0  0
    0.2006    0.8826    0.0000 Cl  0  0  0  0  0  0  0  0  0
    3.0584   -0.7674    0.0000 C   0  0  0  0  0  0  0  0  0
    3.0584   -1.5924    0.0000 N   0  0  0  0  0  0  0  0  0
    2.3440   -2.0049    0.0000 O   0  0  0  0  0  0  0  0  0
    2.3440   -2.8299    0.0000 C   0  0  0  0  0  0  0  0  0
    3.7729   -0.3549    0.0000 C   0  0  0  0  0  0  0  0  0
    3.7729    0.4701    0.0000 C   0  0  0  0  0  0  0  0  0
    4.4874    0.8826    0.0000 N   0  0  0  0  0  0  0  0  0
    4.4874    1.7076    0.0000 C   0  0  0  0  0  0  0  0  0
    5.2019    2.1201    0.0000 C   0  0  0  0  0  0  0  0  0
    5.9163    1.7076    0.0000 N   0  0  0  0  0  0  0  0  0
    5.9163    0.8826    0.0000 C   0  0  0  0  0  0  0  0  0
    5.2019    0.4701    0.0000 C   0  0  0  0  0  0  0  0  0
    6.6308    2.1201    0.0000 C   0  0  0  0  0  0  0  0  0
    6.6308    2.9451    0.0000 N   0  0  0  0  0  0  0  0  0
    7.3453    3.3576    0.0000 C   0  0  0  0  0  0  0  0  0
    8.0597    2.9451    0.0000 C   0  0  0  0  0  0  0  0  0
    8.0597    2.1201    0.0000 C   0  0  0  0  0  0  0  0  0
    7.3453    1.7076    0.0000 C   0  0  0  0  0  0  0  0  0
  1  2  1  0  0  0  0
  2  3  4  0  0  0  0
  2  7  4  0  0  0  0
  3  4  4  0  0  0  0
  4  5  4  0  0  0  0
  4  9  1  0  0  0  0
  5  6  4  0  0  0  0
  6  7  4  0  0  0  0
  7  8  1  0  0  0  0
  9 10  2  0  0  0  0
  9 13  1  0  0  0  0
 10 11  1  0  0  0  0
 11 12  1  0  0  0  0
 13 14  1  0  0  0  0
 14 15  1  0  0  0  0
 15 16  1  0  0  0  0
 15 20  1  0  0  0  0
 16 17  1  0  0  0  0
 17 18  1  0  0  0  0
 18 19  1  0  0  0  0
 18 21  1  0  0  0  0
 19 20  1  0  0  0  0
 21 22  4  0  0  0  0
 21 26  4  0  0  0  0
 22 23  4  0  0  0  0
 23 24  4  0  0  0  0
 24 25  4  0  0  0  0
 25 26  4  0  0  0  0
M  END
>  <Name_Molregno>
355664

>  <DOPAMINE D2>
7.19

>  <DOPAMINE D4>
8.19

$$$$
355705
  Marvin  02231216192D 0   1.00000     0.00000     0

 26 28  0  0  0  0  0  0  0  0999 V2000
    1.9191    3.3716    0.0000 O   0  0  0  0  0  0  0  0  0
    1.9191    2.5466    0.0000 N   0  0  0  0  0  0  0  0  0
    2.6335    2.1341    0.0000 C   0  0  0  0  0  0  0  0  0
    2.6335    1.3091    0.0000 C   0  0  0  0  0  0  0  0  0
    1.9191    0.8966    0.0000 C   0  0  0  0  0  0  0  0  0
    1.9191    0.0716    0.0000 N   0  0  0  0  0  0  0  0  0
    2.6335   -0.3409    0.0000 C   0  0  0  0  0  0  0  0  0
    2.6335   -1.1659    0.0000 C   0  0  0  0  0  0  0  0  0
    1.9191   -1.5784    0.0000 N   0  0  0  0  0  0  0  0  0
    1.2046   -1.1659    0.0000 C   0  0  0  0  0  0  0  0  0
    1.2046   -0.3409    0.0000 C   0  0  0  0  0  0  0  0  0
    1.9191   -2.4034    0.0000 C   0  0  0  0  0  0  0  0  0
    2.6335   -2.8159    0.0000 N   0  0  0  0  0  0  0  0  0
    2.6335   -3.6409    0.0000 C   0  0  0  0  0  0  0  0  0
    1.9191   -4.0534    0.0000 C   0  0  0  0  0  0  0  0  0
    1.2046   -3.6409    0.0000 C   0  0  0  0  0  0  0  0  0
    1.2046   -2.8159    0.0000 C   0  0  0  0  0  0  0  0  0
    3.3480    2.5466    0.0000 C   0  0  0  0  0  0  0  0  0
    3.3480    3.3716    0.0000 C   0  0  0  0  0  0  0  0  0
    4.0625    3.7841    0.0000 C   0  0  0  0  0  0  0  0  0
    4.7770    3.3716    0.0000 C   0  0  0  0  0  0  0  0  0
    4.7770    2.5466    0.0000 C   0  0  0  0  0  0  0  0  0
    4.0625    2.1341    0.0000 C   0  0  0  0  0  0  0  0  0
    4.0625    4.6091    0.0000 C   0  0  0  0  0  0  0  0  0
    4.0625    5.4341    0.0000 N   0  0  0  0  0  0  0  0  0
    1.2046    3.7841    0.0000 C   0  0  0  0  0  0  0  0  0
  1  2  1  0  0  0  0
  1 26  1  0  0  0  0
  2  3  2  0  0  0  0
  3  4  1  0  0  0  0
  3 18  1  0  0  0  0
  4  5  1  0  0  0  0
  5  6  1  0  0  0  0
  6  7  1  0  0  0  0
  6 11  1  0  0  0  0
  7  8  1  0  0  0  0
  8  9  1  0  0  0  0
  9 10  1  0  0  0  0
  9 12  1  0  0  0  0
 10 11  1  0  0  0  0
 12 13  4  0  0  0  0
 12 17  4  0  0  0  0
 13 14  4  0  0  0  0
 14 15  4  0  0  0  0
 15 16  4  0  0  0  0
 16 17  4  0  0  0  0
 18 19  4  0  0  0  0
 18 23  4  0  0  0  0
 19 20  4  0  0  0  0
 20 21  4  0  0  0  0
 20 24  1  0  0  0  0
 21 22  4  0  0  0  0
 22 23  4  0  0  0  0
 24 25  3  0  0  0  0
M  END
>  <Name_Molregno>
355705

>  <DOPAMINE D2>
6.9

>  <DOPAMINE D4>
7.7

$$$$
355725
  Marvin  02231216192D 0   1.00000     0.00000     0

 25 27  0  0  0  0  0  0  0  0999 V2000
    2.4057    2.7097    0.0000 Cl  0  0  0  0  0  0  0  0  0
    2.4057    1.8847    0.0000 C   0  0  0  0  0  0  0  0  0
    3.1202    1.4722    0.0000 C   0  0  0  0  0  0  0  0  0
    3.1202    0.6472    0.0000 C   0  0  0  0  0  0  0  0  0
    2.4057    0.2347    0.0000 C   0  0  0  0  0  0  0  0  0
    1.6913    0.6472    0.0000 C   0  0  0  0  0  0  0  0  0
    1.6913    1.4722    0.0000 C   0  0  0  0  0  0  0  0  0
    2.4057   -0.5903    0.0000 C   0  0  0  0  0  0  0  0  0
    1.6913   -1.0028    0.0000 N   0  0  0  0  0  0  0  0  0
    0.9768   -0.5903    0.0000 O   0  0  0  0  0  0  0  0  0
    0.2623   -1.0028    0.0000 C   0  0  0  0  0  0  0  0  0
    3.1202   -1.0028    0.0000 C   0  0  0  0  0  0  0  0  0
    3.8347   -0.5903    0.0000 C   0  0  0  0  0  0  0  0  0
    4.5491   -1.0028    0.0000 N   0  0  0  0  0  0  0  0  0
    5.2636   -0.5903    0.0000 C   0  0  0  0  0  0  0  0  0
    5.9781   -1.0028    0.0000 C   0  0  0  0  0  0  0  0  0
    5.9781   -1.8278    0.0000 C   0  0  0  0  0  0  0  0  0
    5.2636   -2.2403    0.0000 C   0  0  0  0  0  0  0  0  0
    4.5491   -1.8278    0.0000 C   0  0  0  0  0  0  0  0  0
    6.6926   -2.2403    0.0000 C   0  0  0  0  0  0  0  0  0
    7.4070   -1.8278    0.0000 N   0  0  0  0  0  0  0  0  0
    8.1215   -2.2403    0.0000 C   0  0  0  0  0  0  0  0  0
    8.1215   -3.0653    0.0000 C   0  0  0  0  0  0  0  0  0
    7.4070   -3.4778    0.0000 C   0  0  0  0  0  0  0  0  0
    6.6926   -3.0653    0.0000 C   0  0  0  0  0  0  0  0  0
  1  2  1  0  0  0  0
  2  3  4  0  0  0  0
  2  7  4  0  0  0  0
  3  4  4  0  0  0  0
  4  5  4  0  0  0  0
  5  6  4  0  0  0  0
  5  8  1  0  0  0  0
  6  7  4  0  0  0  0
  8  9  2  0  0  0  0
  8 12  1  0  0  0  0
  9 10  1  0  0  0  0
 10 11  1  0  0  0  0
 12 13  1  0  0  0  0
 13 14  1  0  0  0  0
 14 15  1  0  0  0  0
 14 19  1  0  0  0  0
 15 16  1  0  0  0  0
 16 17  1  0  0  0  0
 17 18  1  0  0  0  0
 17 20  1  0  0  0  0
 18 19  1  0  0  0  0
 20 21  4  0  0  0  0
 20 25  4  0  0  0  0
 21 22  4  0  0  0  0
 22 23  4  0  0  0  0
 23 24  4  0  0  0  0
 24 25  4  0  0  0  0
M  END
>  <Name_Molregno>
355725

>  <DOPAMINE D2>
7.65

>  <DOPAMINE D4>
6.96

$$$$
355755
  Marvin  02231216192D 0   1.00000     0.00000     0

 25 27  0  0  0  0  0  0  0  0999 V2000
    2.4057    2.7097    0.0000 F   0  0  0  0  0  0  0  0  0
    2.4057    1.8847    0.0000 C   0  0  0  0  0  0  0  0  0
    3.1202    1.4722    0.0000 C   0  0  0  0  0  0  0  0  0
    3.1202    0.6472    0.0000 C   0  0  0  0  0  0  0  0  0
    2.4057    0.2347    0.0000 C   0  0  0  0  0  0  0  0  0
    1.6913    0.6472    0.0000 C   0  0  0  0  0  0  0  0  0
    1.6913    1.4722    0.0000 C   0  0  0  0  0  0  0  0  0
    2.4057   -0.5903    0.0000 C   0  0  0  0  0  0  0  0  0
    1.6913   -1.0028    0.0000 N   0  0  0  0  0  0  0  0  0
    0.9768   -0.5903    0.0000 O   0  0  0  0  0  0  0  0  0
    0.2623   -1.0028    0.0000 C   0  0  0  0  0  0  0  0  0
    3.1202   -1.0028    0.0000 C   0  0  0  0  0  0  0  0  0
    3.8347   -0.5903    0.0000 C   0  0  0  0  0  0  0  0  0
    4.5491   -1.0028    0.0000 N   0  0  0  0  0  0  0  0  0
    5.2636   -0.5903    0.0000 C   0  0  0  0  0  0  0  0  0
    5.9781   -1.0028    0.0000 C   0  0  0  0  0  0  0  0  0
    5.9781   -1.8278    0.0000 N   0  0  0  0  0  0  0  0  0
    5.2636   -2.2403    0.0000 C   0  0  0  0  0  0  0  0  0
    4.5491   -1.8278    0.0000 C   0  0  0  0  0  0  0  0  0
    6.6926   -2.2403    0.0000 C   0  0  0  0  0  0  0  0  0
    7.4070   -1.8278    0.0000 N   0  0  0  0  0  0  0  0  0
    8.1215   -2.2403    0.0000 C   0  0  0  0  0  0  0  0  0
    8.1215   -3.0653    0.0000 C   0  0  0  0  0  0  0  0  0
    7.4070   -3.4778    0.0000 C   0  0  0  0  0  0  0  0  0
    6.6926   -3.0653    0.0000 C   0  0  0  0  0  0  0  0  0
  1  2  1  0  0  0  0
  2  3  4  0  0  0  0
  2  7  4  0  0  0  0
  3  4  4  0  0  0  0
  4  5  4  0  0  0  0
  5  6  4  0  0  0  0
  5  8  1  0  0  0  0
  6  7  4  0  0  0  0
  8  9  2  0  0  0  0
  8 12  1  0  0  0  0
  9 10  1  0  0  0  0
 10 11  1  0  0  0  0
 12 13  1  0  0  0  0
 13 14  1  0  0  0  0
 14 15  1  0  0  0  0
 14 19  1  0  0  0  0
 15 16  1  0  0  0  0
 16 17  1  0  0  0  0
 17 18  1  0  0  0  0
 17 20  1  0  0  0  0
 18 19  1  0  0  0  0
 20 21  4  0  0  0  0
 20 25  4  0  0  0  0
 21 22  4  0  0  0  0
 22 23  4  0  0  0  0
 23 24  4  0  0  0  0
 24 25  4  0  0  0  0
M  END
>  <Name_Molregno>
355755

>  <DOPAMINE D2>
6.71

>  <DOPAMINE D4>
7.56

$$$$
355791
  Marvin  02231216192D 0   1.00000     0.00000     0

 25 27  0  0  0  0  0  0  0  0999 V2000
    2.4057    2.7097    0.0000 Cl  0  0  0  0  0  0  0  0  0
    2.4057    1.8847    0.0000 C   0  0  0  0  0  0  0  0  0
    3.1202    1.4722    0.0000 C   0  0  0  0  0  0  0  0  0
    3.1202    0.6472    0.0000 C   0  0  0  0  0  0  0  0  0
    2.4057    0.2347    0.0000 C   0  0  0  0  0  0  0  0  0
    1.6913    0.6472    0.0000 C   0  0  0  0  0  0  0  0  0
    1.6913    1.4722    0.0000 C   0  0  0  0  0  0  0  0  0
    2.4057   -0.5903    0.0000 C   0  0  0  0  0  0  0  0  0
    1.6913   -1.0028    0.0000 N   0  0  0  0  0  0  0  0  0
    0.9768   -0.5903    0.0000 O   0  0  0  0  0  0  0  0  0
    0.2623   -1.0028    0.0000 C   0  0  0  0  0  0  0  0  0
    3.1202   -1.0028    0.0000 C   0  0  0  0  0  0  0  0  0
    3.8347   -0.5903    0.0000 C   0  0  0  0  0  0  0  0  0
    4.5491   -1.0028    0.0000 N   0  0  0  0  0  0  0  0  0
    5.2636   -0.5903    0.0000 C   0  0  0  0  0  0  0  0  0
    5.9781   -1.0028    0.0000 C   0  0  0  0  0  0  0  0  0
    5.9781   -1.8278    0.0000 N   0  0  0  0  0  0  0  0  0
    5.2636   -2.2403    0.0000 C   0  0  0  0  0  0  0  0  0
    4.5491   -1.8278    0.0000 C   0  0  0  0  0  0  0  0  0
    6.6926   -2.2403    0.0000 C   0  0  0  0  0  0  0  0  0
    7.4070   -1.8278    0.0000 N   0  0  0  0  0  0  0  0  0
    8.1215   -2.2403    0.0000 C   0  0  0  0  0  0  0  0  0
    8.1215   -3.0653    0.0000 C   0  0  0  0  0  0  0  0  0
    7.4070   -3.4778    0.0000 C   0  0  0  0  0  0  0  0  0
    6.6926   -3.0653    0.0000 C   0  0  0  0  0  0  0  0  0
  1  2  1  0  0  0  0
  2  3  4  0  0  0  0
  2  7  4  0  0  0  0
  3  4  4  0  0  0  0
  4  5  4  0  0  0  0
  5  6  4  0  0  0  0
  5  8  1  0  0  0  0
  6  7  4  0  0  0  0
  8  9  2  0  0  0  0
  8 12  1  0  0  0  0
  9 10  1  0  0  0  0
 10 11  1  0  0  0  0
 12 13  1  0  0  0  0
 13 14  1  0  0  0  0
 14 15  1  0  0  0  0
 14 19  1  0  0  0  0
 15 16  1  0  0  0  0
 16 17  1  0  0  0  0
 17 18  1  0  0  0  0
 17 20  1  0  0  0  0
 18 19  1  0  0  0  0
 20 21  4  0  0  0  0
 20 25  4  0  0  0  0
 21 22  4  0  0  0  0
 22 23  4  0  0  0  0
 23 24  4  0  0  0  0
 24 25  4  0  0  0  0
M  END
>  <Name_Molregno>
355791

>  <DOPAMINE D2>
7.2

>  <DOPAMINE D4>
7.42

$$$$
355799
  Marvin  02231216192D 0   1.00000     0.00000     0

 26 28  0  0  1  0  0  0  0  0999 V2000
    2.4213    2.7741    0.0000 Cl  0  0  0  0  0  0  0  0  0
    2.4213    1.9491    0.0000 C   0  0  0  0  0  0  0  0  0
    3.1357    1.5366    0.0000 C   0  0  0  0  0  0  0  0  0
    3.1357    0.7116    0.0000 C   0  0  0  0  0  0  0  0  0
    2.4213    0.2991    0.0000 C   0  0  0  0  0  0  0  0  0
    1.7068    0.7116    0.0000 C   0  0  0  0  0  0  0  0  0
    1.7068    1.5366    0.0000 C   0  0  0  0  0  0  0  0  0
    2.4213   -0.5259    0.0000 C   0  0  0  0  0  0  0  0  0
    1.7068   -0.9384    0.0000 N   0  0  0  0  0  0  0  0  0
    0.9923   -0.5259    0.0000 O   0  0  0  0  0  0  0  0  0
    0.2778   -0.9384    0.0000 C   0  0  0  0  0  0  0  0  0
    3.1357   -0.9384    0.0000 C   0  0  0  0  0  0  0  0  0
    3.8502   -0.5259    0.0000 C   0  0  0  0  0  0  0  0  0
    4.5647   -0.9384    0.0000 N   0  0  0  0  0  0  0  0  0
    5.2791   -0.5259    0.0000 C   0  0  0  0  0  0  0  0  0
    5.9936   -0.9384    0.0000 C   0  0  0  0  0  0  0  0  0
    5.9936   -1.7634    0.0000 N   0  0  0  0  0  0  0  0  0
    5.2791   -2.1759    0.0000 C   0  0  0  0  0  0  0  0  0
    4.5647   -1.7634    0.0000 C   0  0  0  0  0  0  0  0  0
    6.7081   -2.1759    0.0000 C   0  0  0  0  0  0  0  0  0
    7.4226   -1.7634    0.0000 N   0  0  0  0  0  0  0  0  0
    8.1370   -2.1759    0.0000 C   0  0  0  0  0  0  0  0  0
    8.1370   -3.0009    0.0000 C   0  0  0  0  0  0  0  0  0
    7.4226   -3.4134    0.0000 C   0  0  0  0  0  0  0  0  0
    6.7081   -3.0009    0.0000 C   0  0  0  0  0  0  0  0  0
    3.1357   -1.7634    0.0000 C   0  0  0  0  0  0  0  0  0
  1  2  1  0  0  0  0
  2  3  4  0  0  0  0
  2  7  4  0  0  0  0
  3  4  4  0  0  0  0
  4  5  4  0  0  0  0
  5  6  4  0  0  0  0
  5  8  1  0  0  0  0
  6  7  4  0  0  0  0
  8  9  2  0  0  0  0
  8 12  1  0  0  0  0
  9 10  1  0  0  0  0
 10 11  1  0  0  0  0
 12 13  1  0  0  0  0
 12 26  1  0  0  0  0
 13 14  1  0  0  0  0
 14 15  1  0  0  0  0
 14 19  1  0  0  0  0
 15 16  1  0  0  0  0
 16 17  1  0  0  0  0
 17 18  1  0  0  0  0
 17 20  1  0  0  0  0
 18 19  1  0  0  0  0
 20 21  4  0  0  0  0
 20 25  4  0  0  0  0
 21 22  4  0  0  0  0
 22 23  4  0  0  0  0
 23 24  4  0  0  0  0
 24 25  4  0  0  0  0
M  END
>  <Name_Molregno>
355799

>  <DOPAMINE D2>
6.84

>  <DOPAMINE D4>
6.46

$$$$
355954
  Marvin  02231216192D 0   1.00000     0.00000     0

 26 28  0  0  0  0  0  0  0  0999 V2000
    2.3582    2.5279    0.0000 Cl  0  0  0  0  0  0  0  0  0
    2.3582    1.7029    0.0000 C   0  0  0  0  0  0  0  0  0
    3.0727    1.2904    0.0000 C   0  0  0  0  0  0  0  0  0
    3.0727    0.4654    0.0000 C   0  0  0  0  0  0  0  0  0
    2.3582    0.0529    0.0000 C   0  0  0  0  0  0  0  0  0
    1.6438    0.4654    0.0000 C   0  0  0  0  0  0  0  0  0
    1.6438    1.2904    0.0000 C   0  0  0  0  0  0  0  0  0
    0.9293    1.7029    0.0000 C   0  0  0  0  0  0  0  0  0
    2.3582   -0.7721    0.0000 C   0  0  0  0  0  0  0  0  0
    1.6438   -1.1846    0.0000 N   0  0  0  0  0  0  0  0  0
    0.9293   -0.7721    0.0000 O   0  0  0  0  0  0  0  0  0
    0.2148   -1.1846    0.0000 C   0  0  0  0  0  0  0  0  0
    3.0727   -1.1846    0.0000 C   0  0  0  0  0  0  0  0  0
    3.7872   -0.7721    0.0000 C   0  0  0  0  0  0  0  0  0
    4.5016   -1.1846    0.0000 N   0  0  0  0  0  0  0  0  0
    5.2161   -0.7721    0.0000 C   0  0  0  0  0  0  0  0  0
    5.9306   -1.1846    0.0000 C   0  0  0  0  0  0  0  0  0
    5.9306   -2.0096    0.0000 N   0  0  0  0  0  0  0  0  0
    5.2161   -2.4221    0.0000 C   0  0  0  0  0  0  0  0  0
    4.5016   -2.0096    0.0000 C   0  0  0  0  0  0  0  0  0
    6.6451   -2.4221    0.0000 C   0  0  0  0  0  0  0  0  0
    7.3595   -2.0096    0.0000 N   0  0  0  0  0  0  0  0  0
    8.0740   -2.4221    0.0000 C   0  0  0  0  0  0  0  0  0
    8.0740   -3.2471    0.0000 C   0  0  0  0  0  0  0  0  0
    7.3595   -3.6596    0.0000 C   0  0  0  0  0  0  0  0  0
    6.6451   -3.2471    0.0000 C   0  0  0  0  0  0  0  0  0
  1  2  1  0  0  0  0
  2  3  4  0  0  0  0
  2  7  4  0  0  0  0
  3  4  4  0  0  0  0
  4  5  4  0  0  0  0
  5  6  4  0  0  0  0
  5  9  1  0  0  0  0
  6  7  4  0  0  0  0
  7  8  1  0  0  0  0
  9 10  2  0  0  0  0
  9 13  1  0  0  0  0
 10 11  1  0  0  0  0
 11 12  1  0  0  0  0
 13 14  1  0  0  0  0
 14 15  1  0  0  0  0
 15 16  1  0  0  0  0
 15 20  1  0  0  0  0
 16 17  1  0  0  0  0
 17 18  1  0  0  0  0
 18 19  1  0  0  0  0
 18 21  1  0  0  0  0
 19 20  1  0  0  0  0
 21 22  4  0  0  0  0
 21 26  4  0  0  0  0
 22 23  4  0  0  0  0
 23 24  4  0  0  0  0
 24 25  4  0  0  0  0
 25 26  4  0  0  0  0
M  END
>  <Name_Molregno>
355954

>  <DOPAMINE D2>
7.22

>  <DOPAMINE D4>
7.94

$$$$
355984
  Marvin  02231216192D 0   1.00000     0.00000     0

 26 28  0  0  0  0  0  0  0  0999 V2000
    1.9373    3.4454    0.0000 O   0  0  0  0  0  0  0  0  0
    1.9373    2.6204    0.0000 N   0  0  0  0  0  0  0  0  0
    2.6518    2.2079    0.0000 C   0  0  0  0  0  0  0  0  0
    2.6518    1.3829    0.0000 C   0  0  0  0  0  0  0  0  0
    1.9373    0.9704    0.0000 C   0  0  0  0  0  0  0  0  0
    1.9373    0.1454    0.0000 N   0  0  0  0  0  0  0  0  0
    2.6518   -0.2671    0.0000 C   0  0  0  0  0  0  0  0  0
    2.6518   -1.0921    0.0000 C   0  0  0  0  0  0  0  0  0
    1.9373   -1.5046    0.0000 N   0  0  0  0  0  0  0  0  0
    1.2229   -1.0921    0.0000 C   0  0  0  0  0  0  0  0  0
    1.2229   -0.2671    0.0000 C   0  0  0  0  0  0  0  0  0
    1.9373   -2.3296    0.0000 C   0  0  0  0  0  0  0  0  0
    2.6518   -2.7421    0.0000 N   0  0  0  0  0  0  0  0  0
    2.6518   -3.5671    0.0000 C   0  0  0  0  0  0  0  0  0
    1.9373   -3.9796    0.0000 C   0  0  0  0  0  0  0  0  0
    1.2229   -3.5671    0.0000 C   0  0  0  0  0  0  0  0  0
    1.2229   -2.7421    0.0000 C   0  0  0  0  0  0  0  0  0
    3.3663    2.6204    0.0000 C   0  0  0  0  0  0  0  0  0
    3.3663    3.4454    0.0000 C   0  0  0  0  0  0  0  0  0
    4.0807    3.8579    0.0000 C   0  0  0  0  0  0  0  0  0
    4.0807    4.6829    0.0000 C   0  0  0  0  0  0  0  0  0
    4.7952    3.4454    0.0000 C   0  0  0  0  0  0  0  0  0
    4.7952    2.6204    0.0000 C   0  0  0  0  0  0  0  0  0
    4.0807    2.2079    0.0000 C   0  0  0  0  0  0  0  0  0
    5.5097    3.8579    0.0000 C   0  0  0  0  0  0  0  0  0
    1.2229    3.8579    0.0000 C   0  0  0  0  0  0  0  0  0
  1  2  1  0  0  0  0
  1 26  1  0  0  0  0
  2  3  2  0  0  0  0
  3  4  1  0  0  0  0
  3 18  1  0  0  0  0
  4  5  1  0  0  0  0
  5  6  1  0  0  0  0
  6  7  1  0  0  0  0
  6 11  1  0  0  0  0
  7  8  1  0  0  0  0
  8  9  1  0  0  0  0
  9 10  1  0  0  0  0
  9 12  1  0  0  0  0
 10 11  1  0  0  0  0
 12 13  4  0  0  0  0
 12 17  4  0  0  0  0
 13 14  4  0  0  0  0
 14 15  4  0  0  0  0
 15 16  4  0  0  0  0
 16 17  4  0  0  0  0
 18 19  4  0  0  0  0
 18 24  4  0  0  0  0
 19 20  4  0  0  0  0
 20 21  1  0  0  0  0
 20 22  4  0  0  0  0
 22 23  4  0  0  0  0
 22 25  1  0  0  0  0
 23 24  4  0  0  0  0
M  END
>  <Name_Molregno>
355984

>  <DOPAMINE D2>
6.86

>  <DOPAMINE D4>
7.56

$$$$
356021
  Marvin  02231216192D 0   1.00000     0.00000     0

 24 26  0  0  0  0  0  0  0  0999 V2000
    2.3951    3.6063    0.0000 O   0  0  0  0  0  0  0  0  0
    2.3951    2.7813    0.0000 N   0  0  0  0  0  0  0  0  0
    3.1096    2.3688    0.0000 C   0  0  0  0  0  0  0  0  0
    3.1096    1.5438    0.0000 C   0  0  0  0  0  0  0  0  0
    2.3951    1.1313    0.0000 C   0  0  0  0  0  0  0  0  0
    2.3951    0.3063    0.0000 N   0  0  0  0  0  0  0  0  0
    3.1096   -0.1062    0.0000 C   0  0  0  0  0  0  0  0  0
    3.1096   -0.9312    0.0000 C   0  0  0  0  0  0  0  0  0
    2.3951   -1.3437    0.0000 N   0  0  0  0  0  0  0  0  0
    1.6806   -0.9312    0.0000 C   0  0  0  0  0  0  0  0  0
    1.6806   -0.1062    0.0000 C   0  0  0  0  0  0  0  0  0
    2.3951   -2.1687    0.0000 C   0  0  0  0  0  0  0  0  0
    3.1096   -2.5812    0.0000 N   0  0  0  0  0  0  0  0  0
    3.1096   -3.4062    0.0000 C   0  0  0  0  0  0  0  0  0
    2.3951   -3.8187    0.0000 C   0  0  0  0  0  0  0  0  0
    1.6806   -3.4062    0.0000 C   0  0  0  0  0  0  0  0  0
    1.6806   -2.5812    0.0000 C   0  0  0  0  0  0  0  0  0
    3.8241    2.7813    0.0000 C   0  0  0  0  0  0  0  0  0
    3.8241    3.6063    0.0000 C   0  0  0  0  0  0  0  0  0
    4.5385    4.0188    0.0000 C   0  0  0  0  0  0  0  0  0
    5.2530    3.6063    0.0000 C   0  0  0  0  0  0  0  0  0
    5.2530    2.7813    0.0000 N   0  0  0  0  0  0  0  0  0
    4.5385    2.3688    0.0000 C   0  0  0  0  0  0  0  0  0
    1.6806    4.0188    0.0000 C   0  0  0  0  0  0  0  0  0
  1  2  1  0  0  0  0
  1 24  1  0  0  0  0
  2  3  2  0  0  0  0
  3  4  1  0  0  0  0
  3 18  1  0  0  0  0
  4  5  1  0  0  0  0
  5  6  1  0  0  0  0
  6  7  1  0  0  0  0
  6 11  1  0  0  0  0
  7  8  1  0  0  0  0
  8  9  1  0  0  0  0
  9 10  1  0  0  0  0
  9 12  1  0  0  0  0
 10 11  1  0  0  0  0
 12 13  4  0  0  0  0
 12 17  4  0  0  0  0
 13 14  4  0  0  0  0
 14 15  4  0  0  0  0
 15 16  4  0  0  0  0
 16 17  4  0  0  0  0
 18 19  4  0  0  0  0
 18 23  4  0  0  0  0
 19 20  4  0  0  0  0
 20 21  4  0  0  0  0
 21 22  4  0  0  0  0
 22 23  4  0  0  0  0
M  END
>  <Name_Molregno>
356021

>  <DOPAMINE D2>
5.74

>  <DOPAMINE D4>
6.89

$$$$
356022
  Marvin  02231216192D 0   1.00000     0.00000     0

 26 28  0  0  1  0  0  0  0  0999 V2000
    2.4671    4.4619    0.0000 Cl  0  0  0  0  0  0  0  0  0
    2.4671    3.6369    0.0000 C   0  0  0  0  0  0  0  0  0
    3.1816    3.2244    0.0000 C   0  0  0  0  0  0  0  0  0
    3.1816    2.3994    0.0000 C   0  0  0  0  0  0  0  0  0
    2.4671    1.9869    0.0000 C   0  0  0  0  0  0  0  0  0
    1.7527    2.3994    0.0000 C   0  0  0  0  0  0  0  0  0
    1.7527    3.2244    0.0000 C   0  0  0  0  0  0  0  0  0
    2.4671    1.1619    0.0000 C   0  0  0  0  0  0  0  0  0
    1.7527    0.7494    0.0000 N   0  0  0  0  0  0  0  0  0
    1.0382    1.1619    0.0000 O   0  0  0  0  0  0  0  0  0
    0.3237    0.7494    0.0000 C   0  0  0  0  0  0  0  0  0
    3.1816    0.7494    0.0000 C   0  0  0  0  0  0  0  0  0
    3.8961    1.1619    0.0000 C   0  0  0  0  0  0  0  0  0
    4.6105    0.7494    0.0000 N   0  0  0  0  0  0  0  0  0
    5.3250    1.1619    0.0000 C   0  0  0  0  0  0  0  0  0
    6.0395    0.7494    0.0000 C   0  0  0  0  0  0  0  0  0
    6.0395   -0.0756    0.0000 N   0  0  0  0  0  0  0  0  0
    5.3250   -0.4881    0.0000 C   0  0  0  0  0  0  0  0  0
    4.6105   -0.0756    0.0000 C   0  0  0  0  0  0  0  0  0
    3.8961   -0.4881    0.0000 C   0  0  0  0  0  0  0  0  0
    6.7540   -0.4881    0.0000 C   0  0  0  0  0  0  0  0  0
    7.4684   -0.0756    0.0000 N   0  0  0  0  0  0  0  0  0
    8.1829   -0.4881    0.0000 C   0  0  0  0  0  0  0  0  0
    8.1829   -1.3131    0.0000 C   0  0  0  0  0  0  0  0  0
    7.4684   -1.7256    0.0000 C   0  0  0  0  0  0  0  0  0
    6.7540   -1.3131    0.0000 C   0  0  0  0  0  0  0  0  0
  1  2  1  0  0  0  0
  2  3  4  0  0  0  0
  2  7  4  0  0  0  0
  3  4  4  0  0  0  0
  4  5  4  0  0  0  0
  5  6  4  0  0  0  0
  5  8  1  0  0  0  0
  6  7  4  0  0  0  0
  8  9  2  0  0  0  0
  8 12  1  0  0  0  0
  9 10  1  0  0  0  0
 10 11  1  0  0  0  0
 12 13  1  0  0  0  0
 13 14  1  0  0  0  0
 14 15  1  0  0  0  0
 14 19  1  0  0  0  0
 15 16  1  0  0  0  0
 16 17  1  0  0  0  0
 17 18  1  0  0  0  0
 17 21  1  0  0  0  0
 18 19  1  0  0  0  0
 19 20  1  0  0  0  0
 21 22  4  0  0  0  0
 21 26  4  0  0  0  0
 22 23  4  0  0  0  0
 23 24  4  0  0  0  0
 24 25  4  0  0  0  0
 25 26  4  0  0  0  0
M  END
>  <Name_Molregno>
356022

>  <DOPAMINE D2>
7.12

>  <DOPAMINE D4>
7.17

$$$$
356041
  Marvin  02231216192D 0   1.00000     0.00000     0

 29 31  0  0  1  0  0  0  0  0999 V2000
    5.9296   -5.7648    0.0000 Cl  0  0  0  0  0  0  0  0  0
    5.2151   -5.3523    0.0000 C   0  0  0  0  0  0  0  0  0
    4.5007   -5.7648    0.0000 C   0  0  0  0  0  0  0  0  0
    3.7862   -5.3523    0.0000 C   0  0  0  0  0  0  0  0  0
    3.7862   -4.5273    0.0000 C   0  0  0  0  0  0  0  0  0
    4.5007   -4.1148    0.0000 C   0  0  0  0  0  0  0  0  0
    5.2151   -4.5273    0.0000 C   0  0  0  0  0  0  0  0  0
    3.0717   -4.1148    0.0000 C   0  0  0  0  0  0  0  0  0
    2.3573   -4.5273    0.0000 N   0  0  0  0  0  0  0  0  0
    1.6428   -4.1148    0.0000 O   0  0  0  0  0  0  0  0  0
    0.9283   -4.5273    0.0000 C   0  0  0  0  0  0  0  0  0
    3.0717   -3.2898    0.0000 C   0  0  0  0  0  0  0  0  0
    2.3573   -2.8773    0.0000 C   0  0  0  0  0  0  0  0  0
    2.3573   -2.0523    0.0000 N   0  0  0  0  0  0  0  0  0
    1.6428   -1.6398    0.0000 C   0  0  0  0  0  0  0  0  0
    1.6428   -0.8148    0.0000 C   0  0  0  0  0  0  0  0  0
    2.3573   -0.4023    0.0000 N   0  0  0  0  0  0  0  0  0
    3.0717   -0.8148    0.0000 C   0  0  0  0  0  0  0  0  0
    3.0717   -1.6398    0.0000 C   0  0  0  0  0  0  0  0  0
    2.3573    0.4227    0.0000 C   0  0  0  0  0  0  0  0  0
    1.6428    0.8352    0.0000 N   0  0  0  0  0  0  0  0  0
    1.6428    1.6602    0.0000 C   0  0  0  0  0  0  0  0  0
    2.3573    2.0727    0.0000 C   0  0  0  0  0  0  0  0  0
    3.0717    1.6602    0.0000 C   0  0  0  0  0  0  0  0  0
    3.0717    0.8352    0.0000 C   0  0  0  0  0  0  0  0  0
    3.7862   -2.8773    0.0000 C   0  0  0  0  0  0  0  0  0
    4.5007   -3.2898    0.0000 N   0  0  0  0  0  0  0  0  0
    5.2151   -2.8773    0.0000 O   0  0  0  0  0  0  0  0  0
    5.9296   -3.2898    0.0000 C   0  0  0  0  0  0  0  0  0
  1  2  1  0  0  0  0
  2  3  4  0  0  0  0
  2  7  4  0  0  0  0
  3  4  4  0  0  0  0
  4  5  4  0  0  0  0
  5  6  4  0  0  0  0
  5  8  1  0  0  0  0
  6  7  4  0  0  0  0
  8  9  2  0  0  0  0
  8 12  1  0  0  0  0
  9 10  1  0  0  0  0
 10 11  1  0  0  0  0
 12 13  1  0  0  0  0
 12 26  1  0  0  0  0
 13 14  1  0  0  0  0
 14 15  1  0  0  0  0
 14 19  1  0  0  0  0
 15 16  1  0  0  0  0
 16 17  1  0  0  0  0
 17 18  1  0  0  0  0
 17 20  1  0  0  0  0
 18 19  1  0  0  0  0
 20 21  4  0  0  0  0
 20 25  4  0  0  0  0
 21 22  4  0  0  0  0
 22 23  4  0  0  0  0
 23 24  4  0  0  0  0
 24 25  4  0  0  0  0
 26 27  1  0  0  0  0
 27 28  1  0  0  0  0
 28 29  1  0  0  0  0
M  END
>  <Name_Molregno>
356041

>  <DOPAMINE D2>
6.79

>  <DOPAMINE D4>
6.92

$$$$
356077
  Marvin  02231216192D 0   1.00000     0.00000     0

 26 28  0  0  0  0  0  0  0  0999 V2000
    3.7911    3.1484    0.0000 O   0  0  0  0  0  0  0  0  0
    3.7911    2.3234    0.0000 N   0  0  0  0  0  0  0  0  0
    3.0767    1.9109    0.0000 C   0  0  0  0  0  0  0  0  0
    3.0767    1.0859    0.0000 C   0  0  0  0  0  0  0  0  0
    2.3622    0.6734    0.0000 C   0  0  0  0  0  0  0  0  0
    2.3622   -0.1516    0.0000 N   0  0  0  0  0  0  0  0  0
    3.0767   -0.5641    0.0000 C   0  0  0  0  0  0  0  0  0
    3.0767   -1.3891    0.0000 C   0  0  0  0  0  0  0  0  0
    2.3622   -1.8016    0.0000 N   0  0  0  0  0  0  0  0  0
    1.6477   -1.3891    0.0000 C   0  0  0  0  0  0  0  0  0
    1.6477   -0.5641    0.0000 C   0  0  0  0  0  0  0  0  0
    2.3622   -2.6266    0.0000 C   0  0  0  0  0  0  0  0  0
    3.0767   -3.0391    0.0000 N   0  0  0  0  0  0  0  0  0
    3.0767   -3.8641    0.0000 C   0  0  0  0  0  0  0  0  0
    2.3622   -4.2766    0.0000 C   0  0  0  0  0  0  0  0  0
    1.6477   -3.8641    0.0000 C   0  0  0  0  0  0  0  0  0
    1.6477   -3.0391    0.0000 C   0  0  0  0  0  0  0  0  0
    2.3622    2.3234    0.0000 C   0  0  0  0  0  0  0  0  0
    1.6477    1.9109    0.0000 C   0  0  0  0  0  0  0  0  0
    0.9332    2.3234    0.0000 C   0  0  0  0  0  0  0  0  0
    0.9332    3.1484    0.0000 C   0  0  0  0  0  0  0  0  0
    1.6477    3.5609    0.0000 C   0  0  0  0  0  0  0  0  0
    2.3622    3.1484    0.0000 C   0  0  0  0  0  0  0  0  0
    4.5056    3.5609    0.0000 C   0  0  0  0  0  0  0  0  0
    4.5056    4.3859    0.0000 C   0  0  0  0  0  0  0  0  0
    4.5056    5.2109    0.0000 N   0  0  0  0  0  0  0  0  0
  1  2  1  0  0  0  0
  1 24  1  0  0  0  0
  2  3  2  0  0  0  0
  3  4  1  0  0  0  0
  3 18  1  0  0  0  0
  4  5  1  0  0  0  0
  5  6  1  0  0  0  0
  6  7  1  0  0  0  0
  6 11  1  0  0  0  0
  7  8  1  0  0  0  0
  8  9  1  0  0  0  0
  9 10  1  0  0  0  0
  9 12  1  0  0  0  0
 10 11  1  0  0  0  0
 12 13  4  0  0  0  0
 12 17  4  0  0  0  0
 13 14  4  0  0  0  0
 14 15  4  0  0  0  0
 15 16  4  0  0  0  0
 16 17  4  0  0  0  0
 18 19  4  0  0  0  0
 18 23  4  0  0  0  0
 19 20  4  0  0  0  0
 20 21  4  0  0  0  0
 21 22  4  0  0  0  0
 22 23  4  0  0  0  0
 24 25  1  0  0  0  0
 25 26  3  0  0  0  0
M  END
>  <Name_Molregno>
356077

>  <DOPAMINE D2>
6.85

>  <DOPAMINE D4>
7.06

$$$$
356114
  Marvin  02231216192D 0   1.00000     0.00000     0

 24 26  0  0  0  0  0  0  0  0999 V2000
    2.3951    3.6063    0.0000 O   0  0  0  0  0  0  0  0  0
    2.3951    2.7813    0.0000 N   0  0  0  0  0  0  0  0  0
    3.1096    2.3688    0.0000 C   0  0  0  0  0  0  0  0  0
    3.1096    1.5438    0.0000 C   0  0  0  0  0  0  0  0  0
    2.3951    1.1313    0.0000 C   0  0  0  0  0  0  0  0  0
    2.3951    0.3063    0.0000 N   0  0  0  0  0  0  0  0  0
    3.1096   -0.1062    0.0000 C   0  0  0  0  0  0  0  0  0
    3.1096   -0.9312    0.0000 C   0  0  0  0  0  0  0  0  0
    2.3951   -1.3437    0.0000 N   0  0  0  0  0  0  0  0  0
    1.6806   -0.9312    0.0000 C   0  0  0  0  0  0  0  0  0
    1.6806   -0.1062    0.0000 C   0  0  0  0  0  0  0  0  0
    2.3951   -2.1687    0.0000 C   0  0  0  0  0  0  0  0  0
    3.1096   -2.5812    0.0000 N   0  0  0  0  0  0  0  0  0
    3.1096   -3.4062    0.0000 C   0  0  0  0  0  0  0  0  0
    2.3951   -3.8187    0.0000 C   0  0  0  0  0  0  0  0  0
    1.6806   -3.4062    0.0000 C   0  0  0  0  0  0  0  0  0
    1.6806   -2.5812    0.0000 C   0  0  0  0  0  0  0  0  0
    3.8241    2.7813    0.0000 C   0  0  0  0  0  0  0  0  0
    3.8241    3.6063    0.0000 C   0  0  0  0  0  0  0  0  0
    4.5385    4.0188    0.0000 C   0  0  0  0  0  0  0  0  0
    5.2530    3.6063    0.0000 C   0  0  0  0  0  0  0  0  0
    5.2530    2.7813    0.0000 C   0  0  0  0  0  0  0  0  0
    4.5385    2.3688    0.0000 C   0  0  0  0  0  0  0  0  0
    1.6806    4.0188    0.0000 C   0  0  0  0  0  0  0  0  0
  1  2  1  0  0  0  0
  1 24  1  0  0  0  0
  2  3  2  0  0  0  0
  3  4  1  0  0  0  0
  3 18  1  0  0  0  0
  4  5  1  0  0  0  0
  5  6  1  0  0  0  0
  6  7  1  0  0  0  0
  6 11  1  0  0  0  0
  7  8  1  0  0  0  0
  8  9  1  0  0  0  0
  9 10  1  0  0  0  0
  9 12  1  0  0  0  0
 10 11  1  0  0  0  0
 12 13  4  0  0  0  0
 12 17  4  0  0  0  0
 13 14  4  0  0  0  0
 14 15  4  0  0  0  0
 15 16  4  0  0  0  0
 16 17  4  0  0  0  0
 18 19  4  0  0  0  0
 18 23  4  0  0  0  0
 19 20  4  0  0  0  0
 20 21  4  0  0  0  0
 21 22  4  0  0  0  0
 22 23  4  0  0  0  0
M  END
>  <Name_Molregno>
356114

>  <DOPAMINE D2>
6.76

>  <DOPAMINE D4>
7.64

$$$$
356153
  Marvin  02231216192D 0   1.00000     0.00000     0

 25 27  0  0  0  0  0  0  0  0999 V2000
    2.2795    3.3857    0.0000 O   0  0  0  0  0  0  0  0  0
    2.2795    2.5607    0.0000 N   0  0  0  0  0  0  0  0  0
    2.9940    2.1482    0.0000 C   0  0  0  0  0  0  0  0  0
    2.9940    1.3232    0.0000 C   0  0  0  0  0  0  0  0  0
    2.2795    0.9107    0.0000 C   0  0  0  0  0  0  0  0  0
    2.2795    0.0857    0.0000 N   0  0  0  0  0  0  0  0  0
    2.9940   -0.3268    0.0000 C   0  0  0  0  0  0  0  0  0
    2.9940   -1.1518    0.0000 C   0  0  0  0  0  0  0  0  0
    2.2795   -1.5643    0.0000 N   0  0  0  0  0  0  0  0  0
    1.5650   -1.1518    0.0000 C   0  0  0  0  0  0  0  0  0
    1.5650   -0.3268    0.0000 C   0  0  0  0  0  0  0  0  0
    2.2795   -2.3893    0.0000 C   0  0  0  0  0  0  0  0  0
    2.9940   -2.8018    0.0000 N   0  0  0  0  0  0  0  0  0
    2.9940   -3.6268    0.0000 C   0  0  0  0  0  0  0  0  0
    2.2795   -4.0393    0.0000 C   0  0  0  0  0  0  0  0  0
    1.5650   -3.6268    0.0000 C   0  0  0  0  0  0  0  0  0
    1.5650   -2.8018    0.0000 C   0  0  0  0  0  0  0  0  0
    3.7084    2.5607    0.0000 C   0  0  0  0  0  0  0  0  0
    3.7084    3.3857    0.0000 C   0  0  0  0  0  0  0  0  0
    4.4229    3.7982    0.0000 C   0  0  0  0  0  0  0  0  0
    5.1374    3.3857    0.0000 C   0  0  0  0  0  0  0  0  0
    5.1374    2.5607    0.0000 C   0  0  0  0  0  0  0  0  0
    4.4229    2.1482    0.0000 C   0  0  0  0  0  0  0  0  0
    1.5650    3.7982    0.0000 C   0  0  0  0  0  0  0  0  0
    1.5650    4.6232    0.0000 C   0  0  0  0  0  0  0  0  0
  1  2  1  0  0  0  0
  1 24  1  0  0  0  0
  2  3  2  0  0  0  0
  3  4  1  0  0  0  0
  3 18  1  0  0  0  0
  4  5  1  0  0  0  0
  5  6  1  0  0  0  0
  6  7  1  0  0  0  0
  6 11  1  0  0  0  0
  7  8  1  0  0  0  0
  8  9  1  0  0  0  0
  9 10  1  0  0  0  0
  9 12  1  0  0  0  0
 10 11  1  0  0  0  0
 12 13  4  0  0  0  0
 12 17  4  0  0  0  0
 13 14  4  0  0  0  0
 14 15  4  0  0  0  0
 15 16  4  0  0  0  0
 16 17  4  0  0  0  0
 18 19  4  0  0  0  0
 18 23  4  0  0  0  0
 19 20  4  0  0  0  0
 20 21  4  0  0  0  0
 21 22  4  0  0  0  0
 22 23  4  0  0  0  0
 24 25  1  0  0  0  0
M  END
>  <Name_Molregno>
356153

>  <DOPAMINE D2>
6.89

>  <DOPAMINE D4>
7.42

$$$$
356161
  Marvin  02231216192D 0   1.00000     0.00000     0

 25 27  0  0  0  0  0  0  0  0999 V2000
    1.6303    1.7184    0.0000 F   0  0  0  0  0  0  0  0  0
    1.6303    0.8934    0.0000 C   0  0  0  0  0  0  0  0  0
    2.3448    0.4809    0.0000 C   0  0  0  0  0  0  0  0  0
    2.3448   -0.3441    0.0000 C   0  0  0  0  0  0  0  0  0
    1.6303   -0.7566    0.0000 C   0  0  0  0  0  0  0  0  0
    0.9158   -0.3441    0.0000 C   0  0  0  0  0  0  0  0  0
    0.9158    0.4809    0.0000 C   0  0  0  0  0  0  0  0  0
    3.0592   -0.7566    0.0000 C   0  0  0  0  0  0  0  0  0
    3.0592   -1.5816    0.0000 N   0  0  0  0  0  0  0  0  0
    2.3448   -1.9941    0.0000 O   0  0  0  0  0  0  0  0  0
    2.3448   -2.8191    0.0000 C   0  0  0  0  0  0  0  0  0
    3.7737   -0.3441    0.0000 C   0  0  0  0  0  0  0  0  0
    3.7737    0.4809    0.0000 C   0  0  0  0  0  0  0  0  0
    4.4882    0.8934    0.0000 N   0  0  0  0  0  0  0  0  0
    4.4882    1.7184    0.0000 C   0  0  0  0  0  0  0  0  0
    5.2027    2.1309    0.0000 C   0  0  0  0  0  0  0  0  0
    5.9171    1.7184    0.0000 N   0  0  0  0  0  0  0  0  0
    5.9171    0.8934    0.0000 C   0  0  0  0  0  0  0  0  0
    5.2027    0.4809    0.0000 C   0  0  0  0  0  0  0  0  0
    6.6316    2.1309    0.0000 C   0  0  0  0  0  0  0  0  0
    6.6316    2.9559    0.0000 N   0  0  0  0  0  0  0  0  0
    7.3461    3.3684    0.0000 C   0  0  0  0  0  0  0  0  0
    8.0605    2.9559    0.0000 C   0  0  0  0  0  0  0  0  0
    8.0605    2.1309    0.0000 C   0  0  0  0  0  0  0  0  0
    7.3461    1.7184    0.0000 C   0  0  0  0  0  0  0  0  0
  1  2  1  0  0  0  0
  2  3  4  0  0  0  0
  2  7  4  0  0  0  0
  3  4  4  0  0  0  0
  4  5  4  0  0  0  0
  4  8  1  0  0  0  0
  5  6  4  0  0  0  0
  6  7  4  0  0  0  0
  8  9  2  0  0  0  0
  8 12  1  0  0  0  0
  9 10  1  0  0  0  0
 10 11  1  0  0  0  0
 12 13  1  0  0  0  0
 13 14  1  0  0  0  0
 14 15  1  0  0  0  0
 14 19  1  0  0  0  0
 15 16  1  0  0  0  0
 16 17  1  0  0  0  0
 17 18  1  0  0  0  0
 17 20  1  0  0  0  0
 18 19  1  0  0  0  0
 20 21  4  0  0  0  0
 20 25  4  0  0  0  0
 21 22  4  0  0  0  0
 22 23  4  0  0  0  0
 23 24  4  0  0  0  0
 24 25  4  0  0  0  0
M  END
>  <Name_Molregno>
356161

>  <DOPAMINE D2>
7.16

>  <DOPAMINE D4>
8.02

$$$$
356208
  Marvin  02231216192D 0   1.00000     0.00000     0

 25 27  0  0  0  0  0  0  0  0999 V2000
    1.6303    1.7184    0.0000 Cl  0  0  0  0  0  0  0  0  0
    1.6303    0.8934    0.0000 C   0  0  0  0  0  0  0  0  0
    2.3448    0.4809    0.0000 C   0  0  0  0  0  0  0  0  0
    2.3448   -0.3441    0.0000 C   0  0  0  0  0  0  0  0  0
    1.6303   -0.7566    0.0000 C   0  0  0  0  0  0  0  0  0
    0.9158   -0.3441    0.0000 C   0  0  0  0  0  0  0  0  0
    0.9158    0.4809    0.0000 C   0  0  0  0  0  0  0  0  0
    3.0592   -0.7566    0.0000 C   0  0  0  0  0  0  0  0  0
    3.0592   -1.5816    0.0000 N   0  0  0  0  0  0  0  0  0
    2.3448   -1.9941    0.0000 O   0  0  0  0  0  0  0  0  0
    2.3448   -2.8191    0.0000 C   0  0  0  0  0  0  0  0  0
    3.7737   -0.3441    0.0000 C   0  0  0  0  0  0  0  0  0
    3.7737    0.4809    0.0000 C   0  0  0  0  0  0  0  0  0
    4.4882    0.8934    0.0000 N   0  0  0  0  0  0  0  0  0
    4.4882    1.7184    0.0000 C   0  0  0  0  0  0  0  0  0
    5.2027    2.1309    0.0000 C   0  0  0  0  0  0  0  0  0
    5.9171    1.7184    0.0000 N   0  0  0  0  0  0  0  0  0
    5.9171    0.8934    0.0000 C   0  0  0  0  0  0  0  0  0
    5.2027    0.4809    0.0000 C   0  0  0  0  0  0  0  0  0
    6.6316    2.1309    0.0000 C   0  0  0  0  0  0  0  0  0
    6.6316    2.9559    0.0000 N   0  0  0  0  0  0  0  0  0
    7.3461    3.3684    0.0000 C   0  0  0  0  0  0  0  0  0
    8.0605    2.9559    0.0000 C   0  0  0  0  0  0  0  0  0
    8.0605    2.1309    0.0000 C   0  0  0  0  0  0  0  0  0
    7.3461    1.7184    0.0000 C   0  0  0  0  0  0  0  0  0
  1  2  1  0  0  0  0
  2  3  4  0  0  0  0
  2  7  4  0  0  0  0
  3  4  4  0  0  0  0
  4  5  4  0  0  0  0
  4  8  1  0  0  0  0
  5  6  4  0  0  0  0
  6  7  4  0  0  0  0
  8  9  2  0  0  0  0
  8 12  1  0  0  0  0
  9 10  1  0  0  0  0
 10 11  1  0  0  0  0
 12 13  1  0  0  0  0
 13 14  1  0  0  0  0
 14 15  1  0  0  0  0
 14 19  1  0  0  0  0
 15 16  1  0  0  0  0
 16 17  1  0  0  0  0
 17 18  1  0  0  0  0
 17 20  1  0  0  0  0
 18 19  1  0  0  0  0
 20 21  4  0  0  0  0
 20 25  4  0  0  0  0
 21 22  4  0  0  0  0
 22 23  4  0  0  0  0
 23 24  4  0  0  0  0
 24 25  4  0  0  0  0
M  END
>  <Name_Molregno>
356208

>  <DOPAMINE D2>
7.01

>  <DOPAMINE D4>
7.87

$$$$
356250
  Marvin  02231216192D 0   1.00000     0.00000     0

 25 27  0  0  0  0  0  0  0  0999 V2000
    2.1669    3.4869    0.0000 O   0  0  0  0  0  0  0  0  0
    2.1669    2.6619    0.0000 N   0  0  0  0  0  0  0  0  0
    2.8814    2.2494    0.0000 C   0  0  0  0  0  0  0  0  0
    2.8814    1.4244    0.0000 C   0  0  0  0  0  0  0  0  0
    2.1669    1.0119    0.0000 C   0  0  0  0  0  0  0  0  0
    2.1669    0.1869    0.0000 N   0  0  0  0  0  0  0  0  0
    2.8814   -0.2256    0.0000 C   0  0  0  0  0  0  0  0  0
    2.8814   -1.0506    0.0000 C   0  0  0  0  0  0  0  0  0
    2.1669   -1.4631    0.0000 N   0  0  0  0  0  0  0  0  0
    1.4525   -1.0506    0.0000 C   0  0  0  0  0  0  0  0  0
    1.4525   -0.2256    0.0000 C   0  0  0  0  0  0  0  0  0
    2.1669   -2.2881    0.0000 C   0  0  0  0  0  0  0  0  0
    2.8814   -2.7006    0.0000 N   0  0  0  0  0  0  0  0  0
    2.8814   -3.5256    0.0000 C   0  0  0  0  0  0  0  0  0
    2.1669   -3.9381    0.0000 C   0  0  0  0  0  0  0  0  0
    1.4525   -3.5256    0.0000 C   0  0  0  0  0  0  0  0  0
    1.4525   -2.7006    0.0000 C   0  0  0  0  0  0  0  0  0
    3.5959    2.6619    0.0000 C   0  0  0  0  0  0  0  0  0
    3.5959    3.4869    0.0000 C   0  0  0  0  0  0  0  0  0
    4.3104    3.8994    0.0000 C   0  0  0  0  0  0  0  0  0
    5.0248    3.4869    0.0000 C   0  0  0  0  0  0  0  0  0
    5.0248    2.6619    0.0000 C   0  0  0  0  0  0  0  0  0
    4.3104    2.2494    0.0000 C   0  0  0  0  0  0  0  0  0
    4.3104    4.7244    0.0000 C   0  0  0  0  0  0  0  0  0
    1.4525    3.8994    0.0000 C   0  0  0  0  0  0  0  0  0
  1  2  1  0  0  0  0
  1 25  1  0  0  0  0
  2  3  2  0  0  0  0
  3  4  1  0  0  0  0
  3 18  1  0  0  0  0
  4  5  1  0  0  0  0
  5  6  1  0  0  0  0
  6  7  1  0  0  0  0
  6 11  1  0  0  0  0
  7  8  1  0  0  0  0
  8  9  1  0  0  0  0
  9 10  1  0  0  0  0
  9 12  1  0  0  0  0
 10 11  1  0  0  0  0
 12 13  4  0  0  0  0
 12 17  4  0  0  0  0
 13 14  4  0  0  0  0
 14 15  4  0  0  0  0
 15 16  4  0  0  0  0
 16 17  4  0  0  0  0
 18 19  4  0  0  0  0
 18 23  4  0  0  0  0
 19 20  4  0  0  0  0
 20 21  4  0  0  0  0
 20 24  1  0  0  0  0
 21 22  4  0  0  0  0
 22 23  4  0  0  0  0
M  END
>  <Name_Molregno>
356250

>  <DOPAMINE D2>
7.16

>  <DOPAMINE D4>
7.8

$$$$
356330
  Marvin  02231216192D 0   1.00000     0.00000     0

 23 25  0  0  0  0  0  0  0  0999 V2000
    2.4898    3.7892    0.0000 O   0  0  0  0  0  0  0  0  0
    2.4898    2.9642    0.0000 N   0  0  0  0  0  0  0  0  0
    3.2042    2.5517    0.0000 C   0  0  0  0  0  0  0  0  0
    3.2042    1.7267    0.0000 C   0  0  0  0  0  0  0  0  0
    2.4898    1.3142    0.0000 C   0  0  0  0  0  0  0  0  0
    2.4898    0.4892    0.0000 N   0  0  0  0  0  0  0  0  0
    3.2042    0.0767    0.0000 C   0  0  0  0  0  0  0  0  0
    3.2042   -0.7483    0.0000 C   0  0  0  0  0  0  0  0  0
    2.4898   -1.1608    0.0000 N   0  0  0  0  0  0  0  0  0
    1.7753   -0.7483    0.0000 C   0  0  0  0  0  0  0  0  0
    1.7753    0.0767    0.0000 C   0  0  0  0  0  0  0  0  0
    2.4898   -1.9858    0.0000 C   0  0  0  0  0  0  0  0  0
    3.2042   -2.3983    0.0000 N   0  0  0  0  0  0  0  0  0
    3.2042   -3.2233    0.0000 C   0  0  0  0  0  0  0  0  0
    2.4898   -3.6358    0.0000 C   0  0  0  0  0  0  0  0  0
    1.7753   -3.2233    0.0000 C   0  0  0  0  0  0  0  0  0
    1.7753   -2.3983    0.0000 C   0  0  0  0  0  0  0  0  0
    3.9187    2.9642    0.0000 C   0  0  0  0  0  0  0  0  0
    3.9187    3.7892    0.0000 C   0  0  0  0  0  0  0  0  0
    4.6332    4.2017    0.0000 C   0  0  0  0  0  0  0  0  0
    5.3477    3.7892    0.0000 C   0  0  0  0  0  0  0  0  0
    5.3477    2.9642    0.0000 C   0  0  0  0  0  0  0  0  0
    4.6332    2.5517    0.0000 C   0  0  0  0  0  0  0  0  0
  1  2  1  0  0  0  0
  2  3  2  0  0  0  0
  3  4  1  0  0  0  0
  3 18  1  0  0  0  0
  4  5  1  0  0  0  0
  5  6  1  0  0  0  0
  6  7  1  0  0  0  0
  6 11  1  0  0  0  0
  7  8  1  0  0  0  0
  8  9  1  0  0  0  0
  9 10  1  0  0  0  0
  9 12  1  0  0  0  0
 10 11  1  0  0  0  0
 12 13  4  0  0  0  0
 12 17  4  0  0  0  0
 13 14  4  0  0  0  0
 14 15  4  0  0  0  0
 15 16  4  0  0  0  0
 16 17  4  0  0  0  0
 18 19  4  0  0  0  0
 18 23  4  0  0  0  0
 19 20  4  0  0  0  0
 20 21  4  0  0  0  0
 21 22  4  0  0  0  0
 22 23  4  0  0  0  0
M  END
>  <Name_Molregno>
356330

>  <DOPAMINE D2>
6.59

>  <DOPAMINE D4>
7.6

$$$$
356450
  Marvin  02231216192D 0   1.00000     0.00000     0

 24 26  0  0  0  0  0  0  0  0999 V2000
    4.0660   -4.3878    0.0000 S   0  0  0  0  0  0  0  0  0
    3.8110   -5.1724    0.0000 C   0  0  0  0  0  0  0  0  0
    2.9860   -5.1724    0.0000 C   0  0  0  0  0  0  0  0  0
    2.7311   -4.3878    0.0000 N   0  0  0  0  0  0  0  0  0
    3.3985   -3.9029    0.0000 C   0  0  0  0  0  0  0  0  0
    3.3985   -3.0779    0.0000 N   0  0  0  0  0  0  0  0  0
    2.6841   -2.6654    0.0000 C   0  0  0  0  0  0  0  0  0
    2.6841   -1.8404    0.0000 C   0  0  0  0  0  0  0  0  0
    3.3985   -1.4279    0.0000 N   0  0  0  0  0  0  0  0  0
    4.1130   -1.8404    0.0000 C   0  0  0  0  0  0  0  0  0
    4.1130   -2.6654    0.0000 C   0  0  0  0  0  0  0  0  0
    3.3985   -0.6029    0.0000 C   0  0  0  0  0  0  0  0  0
    4.1130   -0.1904    0.0000 C   0  0  0  0  0  0  0  0  0
    4.1130    0.6346    0.0000 C   0  0  0  0  0  0  0  0  0
    4.8275    1.0471    0.0000 N   0  0  0  0  0  0  0  0  0
    4.8275    1.8721    0.0000 O   0  0  0  0  0  0  0  0  0
    5.5420    2.2846    0.0000 C   0  0  0  0  0  0  0  0  0
    5.5420    3.1096    0.0000 C   0  0  0  0  0  0  0  0  0
    3.3985    1.0471    0.0000 C   0  0  0  0  0  0  0  0  0
    2.6841    0.6346    0.0000 C   0  0  0  0  0  0  0  0  0
    1.9696    1.0471    0.0000 C   0  0  0  0  0  0  0  0  0
    1.9696    1.8721    0.0000 C   0  0  0  0  0  0  0  0  0
    2.6841    2.2846    0.0000 C   0  0  0  0  0  0  0  0  0
    3.3985    1.8721    0.0000 C   0  0  0  0  0  0  0  0  0
  1  2  4  0  0  0  0
  1  5  4  0  0  0  0
  2  3  4  0  0  0  0
  3  4  4  0  0  0  0
  4  5  4  0  0  0  0
  5  6  1  0  0  0  0
  6  7  1  0  0  0  0
  6 11  1  0  0  0  0
  7  8  1  0  0  0  0
  8  9  1  0  0  0  0
  9 10  1  0  0  0  0
  9 12  1  0  0  0  0
 10 11  1  0  0  0  0
 12 13  1  0  0  0  0
 13 14  1  0  0  0  0
 14 15  2  0  0  0  0
 14 19  1  0  0  0  0
 15 16  1  0  0  0  0
 16 17  1  0  0  0  0
 17 18  1  0  0  0  0
 19 20  4  0  0  0  0
 19 24  4  0  0  0  0
 20 21  4  0  0  0  0
 21 22  4  0  0  0  0
 22 23  4  0  0  0  0
 23 24  4  0  0  0  0
M  END
>  <Name_Molregno>
356450

>  <DOPAMINE D2>
6.59

>  <DOPAMINE D4>
6.77

$$$$
356514
  Marvin  02231216192D 0   1.00000     0.00000     0

 25 27  0  0  0  0  0  0  0  0999 V2000
    2.2975    3.6097    0.0000 O   0  0  0  0  0  0  0  0  0
    2.2975    2.7847    0.0000 N   0  0  0  0  0  0  0  0  0
    3.0120    2.3722    0.0000 C   0  0  0  0  0  0  0  0  0
    3.0120    1.5472    0.0000 C   0  0  0  0  0  0  0  0  0
    2.2975    1.1347    0.0000 C   0  0  0  0  0  0  0  0  0
    2.2975    0.3097    0.0000 N   0  0  0  0  0  0  0  0  0
    3.0120   -0.1028    0.0000 C   0  0  0  0  0  0  0  0  0
    3.0120   -0.9278    0.0000 C   0  0  0  0  0  0  0  0  0
    2.2975   -1.3403    0.0000 N   0  0  0  0  0  0  0  0  0
    1.5830   -0.9278    0.0000 C   0  0  0  0  0  0  0  0  0
    1.5830   -0.1028    0.0000 C   0  0  0  0  0  0  0  0  0
    2.2975   -2.1653    0.0000 C   0  0  0  0  0  0  0  0  0
    3.0120   -2.5778    0.0000 N   0  0  0  0  0  0  0  0  0
    3.0120   -3.4028    0.0000 C   0  0  0  0  0  0  0  0  0
    2.2975   -3.8153    0.0000 C   0  0  0  0  0  0  0  0  0
    1.5830   -3.4028    0.0000 C   0  0  0  0  0  0  0  0  0
    1.5830   -2.5778    0.0000 C   0  0  0  0  0  0  0  0  0
    3.7264    2.7847    0.0000 C   0  0  0  0  0  0  0  0  0
    3.7264    3.6097    0.0000 C   0  0  0  0  0  0  0  0  0
    4.4409    4.0222    0.0000 C   0  0  0  0  0  0  0  0  0
    5.1554    3.6097    0.0000 C   0  0  0  0  0  0  0  0  0
    5.1554    2.7847    0.0000 C   0  0  0  0  0  0  0  0  0
    4.4409    2.3722    0.0000 C   0  0  0  0  0  0  0  0  0
    4.4409    1.5472    0.0000 C   0  0  0  0  0  0  0  0  0
    1.5830    4.0222    0.0000 C   0  0  0  0  0  0  0  0  0
  1  2  1  0  0  0  0
  1 25  1  0  0  0  0
  2  3  2  0  0  0  0
  3  4  1  0  0  0  0
  3 18  1  0  0  0  0
  4  5  1  0  0  0  0
  5  6  1  0  0  0  0
  6  7  1  0  0  0  0
  6 11  1  0  0  0  0
  7  8  1  0  0  0  0
  8  9  1  0  0  0  0
  9 10  1  0  0  0  0
  9 12  1  0  0  0  0
 10 11  1  0  0  0  0
 12 13  4  0  0  0  0
 12 17  4  0  0  0  0
 13 14  4  0  0  0  0
 14 15  4  0  0  0  0
 15 16  4  0  0  0  0
 16 17  4  0  0  0  0
 18 19  4  0  0  0  0
 18 23  4  0  0  0  0
 19 20  4  0  0  0  0
 20 21  4  0  0  0  0
 21 22  4  0  0  0  0
 22 23  4  0  0  0  0
 23 24  1  0  0  0  0
M  END
>  <Name_Molregno>
356514

>  <DOPAMINE D2>
6.95

>  <DOPAMINE D4>
7.94

$$$$
357194
  Marvin  02231216192D 0   1.00000     0.00000     0

 36 40  0  0  0  0  0  0  0  0999 V2000
   -4.3023   -2.5888    0.0000 Cl  0  0  0  0  0  0  0  0  0
   -3.5139   -2.8320    0.0000 C   0  0  0  0  0  0  0  0  0
   -2.9092   -2.2708    0.0000 C   0  0  0  0  0  0  0  0  0
   -2.1208   -2.5140    0.0000 C   0  0  0  0  0  0  0  0  0
   -1.6064   -1.8690    0.0000 N   0  0  0  0  0  0  0  0  0
   -0.7814   -1.8690    0.0000 C   0  0  0  0  0  0  0  0  0
   -0.4235   -1.1257    0.0000 N   0  0  0  0  0  0  0  0  0
   -0.8882   -0.4440    0.0000 C   0  0  0  0  0  0  0  0  0
   -0.5303    0.2993    0.0000 C   0  0  0  0  0  0  0  0  0
    0.2924    0.3609    0.0000 N   0  0  0  0  0  0  0  0  0
    0.7572   -0.3207    0.0000 C   0  0  0  0  0  0  0  0  0
    0.3992   -1.0640    0.0000 C   0  0  0  0  0  0  0  0  0
    0.6504    1.1042    0.0000 C   0  0  0  0  0  0  0  0  0
   -0.2670   -2.5140    0.0000 C   0  0  0  0  0  0  0  0  0
   -0.4506   -3.3183    0.0000 C   0  0  0  0  0  0  0  0  0
   -1.1939   -3.6763    0.0000 N   0  0  0  0  0  0  0  0  0
   -1.1939   -4.5013    0.0000 N   0  0  0  0  0  0  0  0  0
   -0.4795   -4.9138    0.0000 C   0  0  0  0  0  0  0  0  0
    0.2350   -4.5013    0.0000 O   0  0  0  0  0  0  0  0  0
   -0.4795   -5.7388    0.0000 C   0  0  0  0  0  0  0  0  0
    0.2350   -6.1513    0.0000 C   0  0  0  0  0  0  0  0  0
    0.9495   -5.7388    0.0000 O   0  0  0  0  0  0  0  0  0
    0.9495   -4.9138    0.0000 C   0  0  0  0  0  0  0  0  0
    0.2350   -6.9763    0.0000 C   0  0  0  0  0  0  0  0  0
   -0.4795   -7.3888    0.0000 C   0  0  0  0  0  0  0  0  0
   -1.1939   -6.9763    0.0000 C   0  0  0  0  0  0  0  0  0
   -1.1939   -6.1513    0.0000 C   0  0  0  0  0  0  0  0  0
   -1.9084   -5.7388    0.0000 O   0  0  0  0  0  0  0  0  0
   -2.6229   -6.1513    0.0000 C   0  0  0  0  0  0  0  0  0
   -1.9372   -3.3183    0.0000 C   0  0  0  0  0  0  0  0  0
   -2.5420   -3.8795    0.0000 C   0  0  0  0  0  0  0  0  0
   -3.3303   -3.6363    0.0000 C   0  0  0  0  0  0  0  0  0
    0.1541   -3.8795    0.0000 C   0  0  0  0  0  0  0  0  0
    0.9425   -3.6363    0.0000 C   0  0  0  0  0  0  0  0  0
    1.1261   -2.8320    0.0000 C   0  0  0  0  0  0  0  0  0
    0.5213   -2.2708    0.0000 C   0  0  0  0  0  0  0  0  0
  1  2  1  0  0  0  0
  2  3  4  0  0  0  0
  2 32  4  0  0  0  0
  3  4  4  0  0  0  0
  4  5  1  0  0  0  0
  4 30  4  0  0  0  0
  5  6  2  0  0  0  0
  6  7  1  0  0  0  0
  6 14  1  0  0  0  0
  7  8  1  0  0  0  0
  7 12  1  0  0  0  0
  8  9  1  0  0  0  0
  9 10  1  0  0  0  0
 10 11  1  0  0  0  0
 10 13  1  0  0  0  0
 11 12  1  0  0  0  0
 14 15  4  0  0  0  0
 14 36  4  0  0  0  0
 15 16  1  0  0  0  0
 15 33  4  0  0  0  0
 16 17  1  0  0  0  0
 16 30  1  0  0  0  0
 17 18  1  0  0  0  0
 18 19  2  0  0  0  0
 18 20  1  0  0  0  0
 20 21  4  0  0  0  0
 20 27  4  0  0  0  0
 21 22  1  0  0  0  0
 21 24  4  0  0  0  0
 22 23  1  0  0  0  0
 24 25  4  0  0  0  0
 25 26  4  0  0  0  0
 26 27  4  0  0  0  0
 27 28  1  0  0  0  0
 28 29  1  0  0  0  0
 30 31  4  0  0  0  0
 31 32  4  0  0  0  0
 33 34  4  0  0  0  0
 34 35  4  0  0  0  0
 35 36  4  0  0  0  0
M  END
>  <Name_Molregno>
357194

>  <5-HT2A>
7.86

>  <Alpha-2A>
6.77

>  <DOPAMINE D1>
8.8

>  <DOPAMINE D2>
6.47

>  <DOPAMINE D4>
5.74

>  <DOPAMINE D5>
7.42

$$$$
357219
  Marvin  02231216192D 0   1.00000     0.00000     0

 33 37  0  0  0  0  0  0  0  0999 V2000
    0.3873    0.8347    0.0000 Cl  0  0  0  0  0  0  0  0  0
    1.1017    1.2472    0.0000 C   0  0  0  0  0  0  0  0  0
    1.1017    2.0722    0.0000 C   0  0  0  0  0  0  0  0  0
    1.8162    2.4847    0.0000 C   0  0  0  0  0  0  0  0  0
    2.5307    2.0722    0.0000 C   0  0  0  0  0  0  0  0  0
    2.5307    1.2472    0.0000 C   0  0  0  0  0  0  0  0  0
    1.8162    0.8347    0.0000 C   0  0  0  0  0  0  0  0  0
    1.8162    0.0097    0.0000 C   0  0  0  0  0  0  0  0  0
    1.1017   -0.4028    0.0000 O   0  0  0  0  0  0  0  0  0
    2.5307   -0.4028    0.0000 N   0  0  0  0  0  0  0  0  0
    2.5307   -1.2278    0.0000 N   0  0  0  0  0  0  0  0  0
    3.2740   -1.5858    0.0000 C   0  0  0  0  0  0  0  0  0
    3.4576   -2.3901    0.0000 C   0  0  0  0  0  0  0  0  0
    4.2459   -2.6333    0.0000 C   0  0  0  0  0  0  0  0  0
    4.8507   -2.0721    0.0000 C   0  0  0  0  0  0  0  0  0
    4.6671   -1.2678    0.0000 C   0  0  0  0  0  0  0  0  0
    3.8787   -1.0246    0.0000 C   0  0  0  0  0  0  0  0  0
    2.9432   -3.0351    0.0000 C   0  0  0  0  0  0  0  0  0
    2.1182   -3.0351    0.0000 N   0  0  0  0  0  0  0  0  0
    1.6038   -2.3901    0.0000 C   0  0  0  0  0  0  0  0  0
    0.8154   -2.6333    0.0000 C   0  0  0  0  0  0  0  0  0
    0.2107   -2.0721    0.0000 C   0  0  0  0  0  0  0  0  0
   -0.5777   -2.3153    0.0000 Cl  0  0  0  0  0  0  0  0  0
    0.3943   -1.2678    0.0000 C   0  0  0  0  0  0  0  0  0
    1.1826   -1.0246    0.0000 C   0  0  0  0  0  0  0  0  0
    1.7874   -1.5858    0.0000 C   0  0  0  0  0  0  0  0  0
    3.3011   -3.7784    0.0000 N   0  0  0  0  0  0  0  0  0
    4.1238   -3.8401    0.0000 C   0  0  0  0  0  0  0  0  0
    4.4818   -4.5833    0.0000 C   0  0  0  0  0  0  0  0  0
    4.0170   -5.2650    0.0000 N   0  0  0  0  0  0  0  0  0
    3.1943   -5.2033    0.0000 C   0  0  0  0  0  0  0  0  0
    2.8364   -4.4600    0.0000 C   0  0  0  0  0  0  0  0  0
    4.3750   -6.0083    0.0000 C   0  0  0  0  0  0  0  0  0
  1  2  1  0  0  0  0
  2  3  4  0  0  0  0
  2  7  4  0  0  0  0
  3  4  4  0  0  0  0
  4  5  4  0  0  0  0
  5  6  4  0  0  0  0
  6  7  4  0  0  0  0
  7  8  1  0  0  0  0
  8  9  2  0  0  0  0
  8 10  1  0  0  0  0
 10 11  1  0  0  0  0
 11 12  1  0  0  0  0
 11 26  1  0  0  0  0
 12 13  4  0  0  0  0
 12 17  4  0  0  0  0
 13 14  4  0  0  0  0
 13 18  1  0  0  0  0
 14 15  4  0  0  0  0
 15 16  4  0  0  0  0
 16 17  4  0  0  0  0
 18 19  2  0  0  0  0
 18 27  1  0  0  0  0
 19 20  1  0  0  0  0
 20 21  4  0  0  0  0
 20 26  4  0  0  0  0
 21 22  4  0  0  0  0
 22 23  1  0  0  0  0
 22 24  4  0  0  0  0
 24 25  4  0  0  0  0
 25 26  4  0  0  0  0
 27 28  1  0  0  0  0
 27 32  1  0  0  0  0
 28 29  1  0  0  0  0
 29 30  1  0  0  0  0
 30 31  1  0  0  0  0
 30 33  1  0  0  0  0
 31 32  1  0  0  0  0
M  END
>  <Name_Molregno>
357219

>  <5-HT2A>
9

>  <Alpha-2A>
6.34

>  <DOPAMINE D1>
8.39

>  <DOPAMINE D2>
6.74

>  <DOPAMINE D4>
6.06

>  <DOPAMINE D5>
7.14

$$$$
357242
  Marvin  02231216192D 0   1.00000     0.00000     0

 36 41  0  0  0  0  0  0  0  0999 V2000
   -4.2025   -2.5109    0.0000 Cl  0  0  0  0  0  0  0  0  0
   -3.4142   -2.7541    0.0000 C   0  0  0  0  0  0  0  0  0
   -2.8094   -2.1929    0.0000 C   0  0  0  0  0  0  0  0  0
   -2.0211   -2.4361    0.0000 C   0  0  0  0  0  0  0  0  0
   -1.5067   -1.7911    0.0000 N   0  0  0  0  0  0  0  0  0
   -0.6817   -1.7911    0.0000 C   0  0  0  0  0  0  0  0  0
   -0.3237   -1.0478    0.0000 N   0  0  0  0  0  0  0  0  0
   -0.7885   -0.3661    0.0000 C   0  0  0  0  0  0  0  0  0
   -0.4305    0.3772    0.0000 C   0  0  0  0  0  0  0  0  0
    0.3922    0.4388    0.0000 N   0  0  0  0  0  0  0  0  0
    0.8569   -0.2428    0.0000 C   0  0  0  0  0  0  0  0  0
    0.4990   -0.9861    0.0000 C   0  0  0  0  0  0  0  0  0
    0.7501    1.1821    0.0000 C   0  0  0  0  0  0  0  0  0
   -0.1673   -2.4361    0.0000 C   0  0  0  0  0  0  0  0  0
   -0.3509   -3.2404    0.0000 C   0  0  0  0  0  0  0  0  0
   -1.0942   -3.5984    0.0000 N   0  0  0  0  0  0  0  0  0
   -1.0942   -4.4234    0.0000 N   0  0  0  0  0  0  0  0  0
   -1.8087   -4.8359    0.0000 C   0  0  0  0  0  0  0  0  0
   -2.5231   -4.4234    0.0000 O   0  0  0  0  0  0  0  0  0
   -1.8087   -5.6609    0.0000 C   0  0  0  0  0  0  0  0  0
   -2.5231   -6.0734    0.0000 C   0  0  0  0  0  0  0  0  0
   -2.5231   -6.8984    0.0000 C   0  0  0  0  0  0  0  0  0
   -1.8087   -7.3109    0.0000 C   0  0  0  0  0  0  0  0  0
   -1.0942   -6.8984    0.0000 C   0  0  0  0  0  0  0  0  0
   -1.0942   -6.0734    0.0000 C   0  0  0  0  0  0  0  0  0
   -3.2376   -7.3109    0.0000 C   0  0  0  0  0  0  0  0  0
   -3.9521   -6.8984    0.0000 C   0  0  0  0  0  0  0  0  0
   -3.9521   -6.0734    0.0000 C   0  0  0  0  0  0  0  0  0
   -3.2376   -5.6609    0.0000 C   0  0  0  0  0  0  0  0  0
   -1.8375   -3.2404    0.0000 C   0  0  0  0  0  0  0  0  0
   -2.4422   -3.8016    0.0000 C   0  0  0  0  0  0  0  0  0
   -3.2306   -3.5584    0.0000 C   0  0  0  0  0  0  0  0  0
    0.2539   -3.8016    0.0000 C   0  0  0  0  0  0  0  0  0
    1.0422   -3.5584    0.0000 C   0  0  0  0  0  0  0  0  0
    1.2258   -2.7541    0.0000 C   0  0  0  0  0  0  0  0  0
    0.6210   -2.1929    0.0000 C   0  0  0  0  0  0  0  0  0
  1  2  1  0  0  0  0
  2  3  4  0  0  0  0
  2 32  4  0  0  0  0
  3  4  4  0  0  0  0
  4  5  1  0  0  0  0
  4 30  4  0  0  0  0
  5  6  2  0  0  0  0
  6  7  1  0  0  0  0
  6 14  1  0  0  0  0
  7  8  1  0  0  0  0
  7 12  1  0  0  0  0
  8  9  1  0  0  0  0
  9 10  1  0  0  0  0
 10 11  1  0  0  0  0
 10 13  1  0  0  0  0
 11 12  1  0  0  0  0
 14 15  4  0  0  0  0
 14 36  4  0  0  0  0
 15 16  1  0  0  0  0
 15 33  4  0  0  0  0
 16 17  1  0  0  0  0
 16 30  1  0  0  0  0
 17 18  1  0  0  0  0
 18 19  2  0  0  0  0
 18 20  1  0  0  0  0
 20 21  4  0  0  0  0
 20 25  4  0  0  0  0
 21 22  4  0  0  0  0
 21 29  4  0  0  0  0
 22 23  4  0  0  0  0
 22 26  4  0  0  0  0
 23 24  4  0  0  0  0
 24 25  4  0  0  0  0
 26 27  4  0  0  0  0
 27 28  4  0  0  0  0
 28 29  4  0  0  0  0
 30 31  4  0  0  0  0
 31 32  4  0  0  0  0
 33 34  4  0  0  0  0
 34 35  4  0  0  0  0
 35 36  4  0  0  0  0
M  END
>  <Name_Molregno>
357242

>  <5-HT2A>
9

>  <Alpha-2A>
6.05

>  <DOPAMINE D1>
8.42

>  <DOPAMINE D2>
6.34

>  <DOPAMINE D4>
6.01

>  <DOPAMINE D5>
6.98

$$$$
357390
  Marvin  02231216192D 0   1.00000     0.00000     0

 37 41  0  0  0  0  0  0  0  0999 V2000
   -4.7351   -2.6013    0.0000 Cl  0  0  0  0  0  0  0  0  0
   -3.9468   -2.8445    0.0000 C   0  0  0  0  0  0  0  0  0
   -3.3420   -2.2833    0.0000 C   0  0  0  0  0  0  0  0  0
   -2.5537   -2.5265    0.0000 C   0  0  0  0  0  0  0  0  0
   -2.0393   -1.8815    0.0000 N   0  0  0  0  0  0  0  0  0
   -1.2143   -1.8815    0.0000 C   0  0  0  0  0  0  0  0  0
   -0.8563   -1.1382    0.0000 N   0  0  0  0  0  0  0  0  0
   -1.3211   -0.4565    0.0000 C   0  0  0  0  0  0  0  0  0
   -0.9631    0.2868    0.0000 C   0  0  0  0  0  0  0  0  0
   -0.1404    0.3484    0.0000 N   0  0  0  0  0  0  0  0  0
    0.3243   -0.3332    0.0000 C   0  0  0  0  0  0  0  0  0
   -0.0336   -1.0765    0.0000 C   0  0  0  0  0  0  0  0  0
    0.2175    1.0917    0.0000 C   0  0  0  0  0  0  0  0  0
   -0.6999   -2.5265    0.0000 C   0  0  0  0  0  0  0  0  0
   -0.8835   -3.3308    0.0000 C   0  0  0  0  0  0  0  0  0
   -1.6268   -3.6888    0.0000 N   0  0  0  0  0  0  0  0  0
   -1.6268   -4.5138    0.0000 N   0  0  0  0  0  0  0  0  0
   -0.9123   -4.9263    0.0000 C   0  0  0  0  0  0  0  0  0
   -0.1978   -4.5138    0.0000 O   0  0  0  0  0  0  0  0  0
   -0.9123   -5.7513    0.0000 C   0  0  0  0  0  0  0  0  0
   -0.1978   -6.1638    0.0000 C   0  0  0  0  0  0  0  0  0
   -0.1978   -6.9888    0.0000 C   0  0  0  0  0  0  0  0  0
   -0.9123   -7.4013    0.0000 C   0  0  0  0  0  0  0  0  0
   -1.6268   -6.9888    0.0000 C   0  0  0  0  0  0  0  0  0
   -1.6268   -6.1638    0.0000 C   0  0  0  0  0  0  0  0  0
   -2.3412   -5.7513    0.0000 F   0  0  0  0  0  0  0  0  0
    0.5166   -5.7513    0.0000 C   0  0  0  0  0  0  0  0  0
    1.2311   -5.3388    0.0000 F   0  0  0  0  0  0  0  0  0
    0.9291   -6.4657    0.0000 F   0  0  0  0  0  0  0  0  0
    0.1041   -5.0368    0.0000 F   0  0  0  0  0  0  0  0  0
   -2.3701   -3.3308    0.0000 C   0  0  0  0  0  0  0  0  0
   -2.9748   -3.8919    0.0000 C   0  0  0  0  0  0  0  0  0
   -3.7632   -3.6488    0.0000 C   0  0  0  0  0  0  0  0  0
   -0.2787   -3.8919    0.0000 C   0  0  0  0  0  0  0  0  0
    0.5096   -3.6488    0.0000 C   0  0  0  0  0  0  0  0  0
    0.6932   -2.8445    0.0000 C   0  0  0  0  0  0  0  0  0
    0.0885   -2.2833    0.0000 C   0  0  0  0  0  0  0  0  0
  1  2  1  0  0  0  0
  2  3  4  0  0  0  0
  2 33  4  0  0  0  0
  3  4  4  0  0  0  0
  4  5  1  0  0  0  0
  4 31  4  0  0  0  0
  5  6  2  0  0  0  0
  6  7  1  0  0  0  0
  6 14  1  0  0  0  0
  7  8  1  0  0  0  0
  7 12  1  0  0  0  0
  8  9  1  0  0  0  0
  9 10  1  0  0  0  0
 10 11  1  0  0  0  0
 10 13  1  0  0  0  0
 11 12  1  0  0  0  0
 14 15  4  0  0  0  0
 14 37  4  0  0  0  0
 15 16  1  0  0  0  0
 15 34  4  0  0  0  0
 16 17  1  0  0  0  0
 16 31  1  0  0  0  0
 17 18  1  0  0  0  0
 18 19  2  0  0  0  0
 18 20  1  0  0  0  0
 20 21  4  0  0  0  0
 20 25  4  0  0  0  0
 21 22  4  0  0  0  0
 21 27  1  0  0  0  0
 22 23  4  0  0  0  0
 23 24  4  0  0  0  0
 24 25  4  0  0  0  0
 25 26  1  0  0  0  0
 27 28  1  0  0  0  0
 27 29  1  0  0  0  0
 27 30  1  0  0  0  0
 31 32  4  0  0  0  0
 32 33  4  0  0  0  0
 34 35  4  0  0  0  0
 35 36  4  0  0  0  0
 36 37  4  0  0  0  0
M  END
>  <Name_Molregno>
357390

>  <5-HT2A>
8.92

>  <Alpha-2A>
5.7

>  <DOPAMINE D1>
8.6

>  <DOPAMINE D2>
6.42

>  <DOPAMINE D4>
5.7

>  <DOPAMINE D5>
8.15

$$$$
357418
  Marvin  02231216192D 0   1.00000     0.00000     0

 34 38  0  0  0  0  0  0  0  0999 V2000
    0.2845    1.3449    0.0000 Cl  0  0  0  0  0  0  0  0  0
    0.9990    1.7574    0.0000 C   0  0  0  0  0  0  0  0  0
    0.9990    2.5824    0.0000 C   0  0  0  0  0  0  0  0  0
    1.7135    2.9949    0.0000 C   0  0  0  0  0  0  0  0  0
    2.4279    2.5824    0.0000 C   0  0  0  0  0  0  0  0  0
    2.4279    1.7574    0.0000 C   0  0  0  0  0  0  0  0  0
    3.1424    1.3449    0.0000 N   0  0  0  0  0  0  0  0  0
    1.7135    1.3449    0.0000 C   0  0  0  0  0  0  0  0  0
    1.7135    0.5199    0.0000 C   0  0  0  0  0  0  0  0  0
    0.9990    0.1074    0.0000 O   0  0  0  0  0  0  0  0  0
    2.4279    0.1074    0.0000 N   0  0  0  0  0  0  0  0  0
    2.4279   -0.7176    0.0000 N   0  0  0  0  0  0  0  0  0
    3.1712   -1.0755    0.0000 C   0  0  0  0  0  0  0  0  0
    3.3548   -1.8798    0.0000 C   0  0  0  0  0  0  0  0  0
    4.1432   -2.1230    0.0000 C   0  0  0  0  0  0  0  0  0
    4.7479   -1.5619    0.0000 C   0  0  0  0  0  0  0  0  0
    4.5644   -0.7576    0.0000 C   0  0  0  0  0  0  0  0  0
    3.7760   -0.5144    0.0000 C   0  0  0  0  0  0  0  0  0
    2.8404   -2.5248    0.0000 C   0  0  0  0  0  0  0  0  0
    2.0154   -2.5248    0.0000 N   0  0  0  0  0  0  0  0  0
    1.5011   -1.8798    0.0000 C   0  0  0  0  0  0  0  0  0
    0.7127   -2.1230    0.0000 C   0  0  0  0  0  0  0  0  0
    0.1080   -1.5619    0.0000 C   0  0  0  0  0  0  0  0  0
   -0.6804   -1.8050    0.0000 Cl  0  0  0  0  0  0  0  0  0
    0.2915   -0.7576    0.0000 C   0  0  0  0  0  0  0  0  0
    1.0799   -0.5144    0.0000 C   0  0  0  0  0  0  0  0  0
    1.6846   -1.0755    0.0000 C   0  0  0  0  0  0  0  0  0
    3.1984   -3.2681    0.0000 N   0  0  0  0  0  0  0  0  0
    4.0211   -3.3298    0.0000 C   0  0  0  0  0  0  0  0  0
    4.3791   -4.0731    0.0000 C   0  0  0  0  0  0  0  0  0
    3.9143   -4.7547    0.0000 N   0  0  0  0  0  0  0  0  0
    3.0916   -4.6931    0.0000 C   0  0  0  0  0  0  0  0  0
    2.7337   -3.9498    0.0000 C   0  0  0  0  0  0  0  0  0
    4.2723   -5.4980    0.0000 C   0  0  0  0  0  0  0  0  0
  1  2  1  0  0  0  0
  2  3  4  0  0  0  0
  2  8  4  0  0  0  0
  3  4  4  0  0  0  0
  4  5  4  0  0  0  0
  5  6  4  0  0  0  0
  6  7  1  0  0  0  0
  6  8  4  0  0  0  0
  8  9  1  0  0  0  0
  9 10  2  0  0  0  0
  9 11  1  0  0  0  0
 11 12  1  0  0  0  0
 12 13  1  0  0  0  0
 12 27  1  0  0  0  0
 13 14  4  0  0  0  0
 13 18  4  0  0  0  0
 14 15  4  0  0  0  0
 14 19  1  0  0  0  0
 15 16  4  0  0  0  0
 16 17  4  0  0  0  0
 17 18  4  0  0  0  0
 19 20  2  0  0  0  0
 19 28  1  0  0  0  0
 20 21  1  0  0  0  0
 21 22  4  0  0  0  0
 21 27  4  0  0  0  0
 22 23  4  0  0  0  0
 23 24  1  0  0  0  0
 23 25  4  0  0  0  0
 25 26  4  0  0  0  0
 26 27  4  0  0  0  0
 28 29  1  0  0  0  0
 28 33  1  0  0  0  0
 29 30  1  0  0  0  0
 30 31  1  0  0  0  0
 31 32  1  0  0  0  0
 31 34  1  0  0  0  0
 32 33  1  0  0  0  0
M  END
>  <Name_Molregno>
357418

>  <5-HT2A>
9.05

>  <Alpha-2A>
6.49

>  <DOPAMINE D1>
8.59

>  <DOPAMINE D2>
6.3

>  <DOPAMINE D4>
6.09

>  <DOPAMINE D5>
7.28

$$$$
357419
  Marvin  02231216192D 0   1.00000     0.00000     0

 34 38  0  0  0  0  0  0  0  0999 V2000
   -4.1474   -2.6924    0.0000 Cl  0  0  0  0  0  0  0  0  0
   -3.3590   -2.9355    0.0000 C   0  0  0  0  0  0  0  0  0
   -2.7543   -2.3744    0.0000 C   0  0  0  0  0  0  0  0  0
   -1.9659   -2.6176    0.0000 C   0  0  0  0  0  0  0  0  0
   -1.4515   -1.9726    0.0000 N   0  0  0  0  0  0  0  0  0
   -0.6265   -1.9726    0.0000 C   0  0  0  0  0  0  0  0  0
   -0.2686   -1.2293    0.0000 N   0  0  0  0  0  0  0  0  0
   -0.7333   -0.5476    0.0000 C   0  0  0  0  0  0  0  0  0
   -0.3754    0.1957    0.0000 C   0  0  0  0  0  0  0  0  0
    0.4473    0.2573    0.0000 N   0  0  0  0  0  0  0  0  0
    0.9121   -0.4243    0.0000 C   0  0  0  0  0  0  0  0  0
    0.5541   -1.1676    0.0000 C   0  0  0  0  0  0  0  0  0
    0.8053    1.0006    0.0000 C   0  0  0  0  0  0  0  0  0
   -0.1122   -2.6176    0.0000 C   0  0  0  0  0  0  0  0  0
   -0.2957   -3.4219    0.0000 C   0  0  0  0  0  0  0  0  0
   -1.0390   -3.7798    0.0000 N   0  0  0  0  0  0  0  0  0
   -1.0390   -4.6048    0.0000 N   0  0  0  0  0  0  0  0  0
   -0.3246   -5.0173    0.0000 C   0  0  0  0  0  0  0  0  0
    0.3899   -4.6048    0.0000 O   0  0  0  0  0  0  0  0  0
   -0.3246   -5.8423    0.0000 C   0  0  0  0  0  0  0  0  0
    0.3899   -6.2548    0.0000 C   0  0  0  0  0  0  0  0  0
    0.3899   -7.0798    0.0000 C   0  0  0  0  0  0  0  0  0
   -0.3246   -7.4923    0.0000 C   0  0  0  0  0  0  0  0  0
   -1.0390   -7.0798    0.0000 C   0  0  0  0  0  0  0  0  0
   -1.0390   -6.2548    0.0000 C   0  0  0  0  0  0  0  0  0
   -1.7535   -5.8423    0.0000 C   0  0  0  0  0  0  0  0  0
    1.1044   -5.8423    0.0000 C   0  0  0  0  0  0  0  0  0
   -1.7823   -3.4219    0.0000 C   0  0  0  0  0  0  0  0  0
   -2.3871   -3.9830    0.0000 C   0  0  0  0  0  0  0  0  0
   -3.1755   -3.7398    0.0000 C   0  0  0  0  0  0  0  0  0
    0.3090   -3.9830    0.0000 C   0  0  0  0  0  0  0  0  0
    1.0974   -3.7398    0.0000 C   0  0  0  0  0  0  0  0  0
    1.2810   -2.9355    0.0000 C   0  0  0  0  0  0  0  0  0
    0.6762   -2.3744    0.0000 C   0  0  0  0  0  0  0  0  0
  1  2  1  0  0  0  0
  2  3  4  0  0  0  0
  2 30  4  0  0  0  0
  3  4  4  0  0  0  0
  4  5  1  0  0  0  0
  4 28  4  0  0  0  0
  5  6  2  0  0  0  0
  6  7  1  0  0  0  0
  6 14  1  0  0  0  0
  7  8  1  0  0  0  0
  7 12  1  0  0  0  0
  8  9  1  0  0  0  0
  9 10  1  0  0  0  0
 10 11  1  0  0  0  0
 10 13  1  0  0  0  0
 11 12  1  0  0  0  0
 14 15  4  0  0  0  0
 14 34  4  0  0  0  0
 15 16  1  0  0  0  0
 15 31  4  0  0  0  0
 16 17  1  0  0  0  0
 16 28  1  0  0  0  0
 17 18  1  0  0  0  0
 18 19  2  0  0  0  0
 18 20  1  0  0  0  0
 20 21  4  0  0  0  0
 20 25  4  0  0  0  0
 21 22  4  0  0  0  0
 21 27  1  0  0  0  0
 22 23  4  0  0  0  0
 23 24  4  0  0  0  0
 24 25  4  0  0  0  0
 25 26  1  0  0  0  0
 28 29  4  0  0  0  0
 29 30  4  0  0  0  0
 31 32  4  0  0  0  0
 32 33  4  0  0  0  0
 33 34  4  0  0  0  0
M  END
>  <Name_Molregno>
357419

>  <5-HT2A>
8.66

>  <Alpha-2A>
6.1

>  <DOPAMINE D1>
8.52

>  <DOPAMINE D2>
6.54

>  <DOPAMINE D4>
5.73

>  <DOPAMINE D5>
7.51

$$$$
357447
  Marvin  02231216192D 0   1.00000     0.00000     0

 34 38  0  0  0  0  0  0  0  0999 V2000
   -4.1474   -2.6924    0.0000 Cl  0  0  0  0  0  0  0  0  0
   -3.3590   -2.9355    0.0000 C   0  0  0  0  0  0  0  0  0
   -2.7543   -2.3744    0.0000 C   0  0  0  0  0  0  0  0  0
   -1.9659   -2.6176    0.0000 C   0  0  0  0  0  0  0  0  0
   -1.4515   -1.9726    0.0000 N   0  0  0  0  0  0  0  0  0
   -0.6265   -1.9726    0.0000 C   0  0  0  0  0  0  0  0  0
   -0.2686   -1.2293    0.0000 N   0  0  0  0  0  0  0  0  0
   -0.7333   -0.5476    0.0000 C   0  0  0  0  0  0  0  0  0
   -0.3754    0.1957    0.0000 C   0  0  0  0  0  0  0  0  0
    0.4473    0.2573    0.0000 N   0  0  0  0  0  0  0  0  0
    0.9121   -0.4243    0.0000 C   0  0  0  0  0  0  0  0  0
    0.5541   -1.1676    0.0000 C   0  0  0  0  0  0  0  0  0
    0.8053    1.0006    0.0000 C   0  0  0  0  0  0  0  0  0
   -0.1122   -2.6176    0.0000 C   0  0  0  0  0  0  0  0  0
   -0.2957   -3.4219    0.0000 C   0  0  0  0  0  0  0  0  0
   -1.0390   -3.7798    0.0000 N   0  0  0  0  0  0  0  0  0
   -1.0390   -4.6048    0.0000 N   0  0  0  0  0  0  0  0  0
   -0.3246   -5.0173    0.0000 C   0  0  0  0  0  0  0  0  0
    0.3899   -4.6048    0.0000 O   0  0  0  0  0  0  0  0  0
   -0.3246   -5.8423    0.0000 C   0  0  0  0  0  0  0  0  0
    0.3899   -6.2548    0.0000 C   0  0  0  0  0  0  0  0  0
    0.3899   -7.0798    0.0000 C   0  0  0  0  0  0  0  0  0
   -0.3246   -7.4923    0.0000 C   0  0  0  0  0  0  0  0  0
   -1.0390   -7.0798    0.0000 C   0  0  0  0  0  0  0  0  0
   -1.0390   -6.2548    0.0000 C   0  0  0  0  0  0  0  0  0
   -1.7535   -5.8423    0.0000 N   0  0  0  0  0  0  0  0  0
    1.1044   -5.8423    0.0000 C   0  0  0  0  0  0  0  0  0
   -1.7823   -3.4219    0.0000 C   0  0  0  0  0  0  0  0  0
   -2.3871   -3.9830    0.0000 C   0  0  0  0  0  0  0  0  0
   -3.1755   -3.7398    0.0000 C   0  0  0  0  0  0  0  0  0
    0.3090   -3.9830    0.0000 C   0  0  0  0  0  0  0  0  0
    1.0974   -3.7398    0.0000 C   0  0  0  0  0  0  0  0  0
    1.2810   -2.9355    0.0000 C   0  0  0  0  0  0  0  0  0
    0.6762   -2.3744    0.0000 C   0  0  0  0  0  0  0  0  0
  1  2  1  0  0  0  0
  2  3  4  0  0  0  0
  2 30  4  0  0  0  0
  3  4  4  0  0  0  0
  4  5  1  0  0  0  0
  4 28  4  0  0  0  0
  5  6  2  0  0  0  0
  6  7  1  0  0  0  0
  6 14  1  0  0  0  0
  7  8  1  0  0  0  0
  7 12  1  0  0  0  0
  8  9  1  0  0  0  0
  9 10  1  0  0  0  0
 10 11  1  0  0  0  0
 10 13  1  0  0  0  0
 11 12  1  0  0  0  0
 14 15  4  0  0  0  0
 14 34  4  0  0  0  0
 15 16  1  0  0  0  0
 15 31  4  0  0  0  0
 16 17  1  0  0  0  0
 16 28  1  0  0  0  0
 17 18  1  0  0  0  0
 18 19  2  0  0  0  0
 18 20  1  0  0  0  0
 20 21  4  0  0  0  0
 20 25  4  0  0  0  0
 21 22  4  0  0  0  0
 21 27  1  0  0  0  0
 22 23  4  0  0  0  0
 23 24  4  0  0  0  0
 24 25  4  0  0  0  0
 25 26  1  0  0  0  0
 28 29  4  0  0  0  0
 29 30  4  0  0  0  0
 31 32  4  0  0  0  0
 32 33  4  0  0  0  0
 33 34  4  0  0  0  0
M  END
>  <Name_Molregno>
357447

>  <5-HT2A>
8.54

>  <Alpha-2A>
6.34

>  <DOPAMINE D1>
8.49

>  <DOPAMINE D2>
5.99

>  <DOPAMINE D4>
5.31

>  <DOPAMINE D5>
7.24

$$$$
361051
  Marvin  02231216192D 0   1.00000     0.00000     0

 23 26  0  0  0  0  0  0  0  0999 V2000
    0.3583    0.2680    0.0000 N   0  0  0  0  0  0  0  0  0
    0.7190   -0.4740    0.0000 C   0  0  0  0  0  0  0  0  0
    1.5965   -0.6861    0.0000 C   0  0  0  0  0  0  0  0  0
    2.3385   -0.3254    0.0000 C   0  0  0  0  0  0  0  0  0
    2.9108   -0.9196    0.0000 C   0  0  0  0  0  0  0  0  0
    2.5225   -1.6476    0.0000 C   0  0  0  0  0  0  0  0  0
    2.7015   -2.5324    0.0000 C   0  0  0  0  0  0  0  0  0
    2.1073   -3.1047    0.0000 N   0  0  0  0  0  0  0  0  0
    1.3145   -2.8763    0.0000 C   0  0  0  0  0  0  0  0  0
    1.1160   -2.0755    0.0000 C   0  0  0  0  0  0  0  0  0
    0.3233   -1.8471    0.0000 C   0  0  0  0  0  0  0  0  0
    0.1247   -1.0463    0.0000 C   0  0  0  0  0  0  0  0  0
   -0.6032   -0.6580    0.0000 C   0  0  0  0  0  0  0  0  0
   -0.4588    0.1542    0.0000 C   0  0  0  0  0  0  0  0  0
   -1.0901    0.6854    0.0000 C   0  0  0  0  0  0  0  0  0
   -1.8657    0.4042    0.0000 C   0  0  0  0  0  0  0  0  0
   -2.0101   -0.4080    0.0000 C   0  0  0  0  0  0  0  0  0
   -1.3788   -0.9392    0.0000 C   0  0  0  0  0  0  0  0  0
    2.3058   -3.9055    0.0000 C   0  0  0  0  0  0  0  0  0
    3.7115   -0.7211    0.0000 C   0  0  0  0  0  0  0  0  0
    3.9400    0.0716    0.0000 C   0  0  0  0  0  0  0  0  0
    3.3677    0.6658    0.0000 C   0  0  0  0  0  0  0  0  0
    2.5669    0.4673    0.0000 C   0  0  0  0  0  0  0  0  0
  1  2  4  0  0  0  0
  1 14  4  0  0  0  0
  2  3  1  0  0  0  0
  2 12  4  0  0  0  0
  3  4  1  0  0  0  0
  4  5  4  0  0  0  0
  4 23  4  0  0  0  0
  5  6  1  0  0  0  0
  5 20  4  0  0  0  0
  6  7  1  0  0  0  0
  7  8  1  0  0  0  0
  8  9  1  0  0  0  0
  8 19  1  0  0  0  0
  9 10  1  0  0  0  0
 10 11  1  0  0  0  0
 11 12  1  0  0  0  0
 12 13  4  0  0  0  0
 13 14  4  0  0  0  0
 13 18  4  0  0  0  0
 14 15  4  0  0  0  0
 15 16  4  0  0  0  0
 16 17  4  0  0  0  0
 17 18  4  0  0  0  0
 20 21  4  0  0  0  0
 21 22  4  0  0  0  0
 22 23  4  0  0  0  0
M  STY  1   1 DAT
M  SAL   1  1   1
M  SDT   1 MRV_IMPLICIT_H                                        
M  SDD   1     0.0000    0.0000    DR    ALL  0       0  
M  SED   1 IMPL_H1
M  END
>  <Name_Molregno>
361051

>  <DOPAMINE D1>
6.7

>  <DOPAMINE D2>
7.07

>  <DOPAMINE D3>
6.28

>  <DOPAMINE D4>
6.74

>  <DOPAMINE D5>
7.1

$$$$
361078
  Marvin  02231216192D 0   1.00000     0.00000     0

 23 26  0  0  0  0  0  0  0  0999 V2000
    0.2199    0.0739    0.0000 N   0  0  0  0  0  0  0  0  0
    0.5806   -0.6681    0.0000 C   0  0  0  0  0  0  0  0  0
    1.4581   -0.8802    0.0000 C   0  0  0  0  0  0  0  0  0
    2.2001   -0.5195    0.0000 C   0  0  0  0  0  0  0  0  0
    2.7724   -1.1137    0.0000 C   0  0  0  0  0  0  0  0  0
    2.3841   -1.8416    0.0000 C   0  0  0  0  0  0  0  0  0
    2.5631   -2.7265    0.0000 C   0  0  0  0  0  0  0  0  0
    1.9689   -3.2988    0.0000 C   0  0  0  0  0  0  0  0  0
    1.1761   -3.0703    0.0000 N   0  0  0  0  0  0  0  0  0
    0.9776   -2.2696    0.0000 C   0  0  0  0  0  0  0  0  0
    0.1849   -2.0411    0.0000 C   0  0  0  0  0  0  0  0  0
   -0.0136   -1.2404    0.0000 C   0  0  0  0  0  0  0  0  0
   -0.7416   -0.8521    0.0000 C   0  0  0  0  0  0  0  0  0
   -0.5972   -0.0398    0.0000 C   0  0  0  0  0  0  0  0  0
   -1.2285    0.4913    0.0000 C   0  0  0  0  0  0  0  0  0
   -2.0041    0.2102    0.0000 C   0  0  0  0  0  0  0  0  0
   -2.1485   -0.6021    0.0000 C   0  0  0  0  0  0  0  0  0
   -1.5172   -1.1332    0.0000 C   0  0  0  0  0  0  0  0  0
    0.5819   -3.6426    0.0000 C   0  0  0  0  0  0  0  0  0
    3.5731   -0.9152    0.0000 C   0  0  0  0  0  0  0  0  0
    3.8016   -0.1224    0.0000 C   0  0  0  0  0  0  0  0  0
    3.2293    0.4718    0.0000 C   0  0  0  0  0  0  0  0  0
    2.4285    0.2733    0.0000 C   0  0  0  0  0  0  0  0  0
  1  2  4  0  0  0  0
  1 14  4  0  0  0  0
  2  3  1  0  0  0  0
  2 12  4  0  0  0  0
  3  4  1  0  0  0  0
  4  5  4  0  0  0  0
  4 23  4  0  0  0  0
  5  6  1  0  0  0  0
  5 20  4  0  0  0  0
  6  7  1  0  0  0  0
  7  8  1  0  0  0  0
  8  9  1  0  0  0  0
  9 10  1  0  0  0  0
  9 19  1  0  0  0  0
 10 11  1  0  0  0  0
 11 12  1  0  0  0  0
 12 13  4  0  0  0  0
 13 14  4  0  0  0  0
 13 18  4  0  0  0  0
 14 15  4  0  0  0  0
 15 16  4  0  0  0  0
 16 17  4  0  0  0  0
 17 18  4  0  0  0  0
 20 21  4  0  0  0  0
 21 22  4  0  0  0  0
 22 23  4  0  0  0  0
M  STY  1   1 DAT
M  SAL   1  1   1
M  SDT   1 MRV_IMPLICIT_H                                        
M  SDD   1     0.0000    0.0000    DR    ALL  0       0  
M  SED   1 IMPL_H1
M  END
>  <Name_Molregno>
361078

>  <DOPAMINE D1>
8.63

>  <DOPAMINE D2>
8.18

>  <DOPAMINE D3>
6.56

>  <DOPAMINE D4>
7.01

>  <DOPAMINE D5>
8.88

$$$$
361616
  Marvin  02231216192D 0   1.00000     0.00000     0

 20 23  0  0  1  0  0  0  0  0999 V2000
   -0.8000    2.9458    0.0000 O   0  0  0  0  0  0  0  0  0
   -0.0855    3.3583    0.0000 C   0  0  0  0  0  0  0  0  0
    0.6290    2.9458    0.0000 C   0  0  0  0  0  0  0  0  0
    1.3435    3.3583    0.0000 N   0  0  0  0  0  0  0  0  0
    2.0579    2.9458    0.0000 C   0  0  0  0  0  0  0  0  0
    2.0579    2.1208    0.0000 C   0  0  0  0  0  0  0  0  0
    1.3435    1.7083    0.0000 C   0  0  0  0  0  0  0  0  0
    0.6290    2.1208    0.0000 C   0  0  0  0  0  0  0  0  0
   -0.0855    1.7083    0.0000 C   0  0  0  0  0  0  0  0  0
   -0.0855    0.8833    0.0000 C   0  0  0  0  0  0  0  0  0
   -0.8000    0.4708    0.0000 C   0  0  0  0  0  0  0  0  0
   -0.8000   -0.3542    0.0000 O   0  0  0  0  0  0  0  0  0
   -1.5144    0.8833    0.0000 C   0  0  0  0  0  0  0  0  0
   -2.2289    0.4708    0.0000 O   0  0  0  0  0  0  0  0  0
   -1.5144    1.7083    0.0000 C   0  0  0  0  0  0  0  0  0
   -0.8000    2.1208    0.0000 C   0  0  0  0  0  0  0  0  0
    1.3435    0.8833    0.0000 C   0  0  0  0  0  0  0  0  0
    2.0579    0.4708    0.0000 C   0  0  0  0  0  0  0  0  0
    2.7724    0.8833    0.0000 C   0  0  0  0  0  0  0  0  0
    2.7724    1.7083    0.0000 C   0  0  0  0  0  0  0  0  0
  1  2  1  0  0  0  0
  1 16  1  0  0  0  0
  2  3  1  0  0  0  0
  3  4  1  0  0  0  0
  3  8  1  0  0  0  0
  4  5  1  0  0  0  0
  5  6  1  0  0  0  0
  6  7  4  0  0  0  0
  6 20  4  0  0  0  0
  7  8  1  0  0  0  0
  7 17  4  0  0  0  0
  8  9  1  0  0  0  0
  9 10  4  0  0  0  0
  9 16  4  0  0  0  0
 10 11  4  0  0  0  0
 11 12  1  0  0  0  0
 11 13  4  0  0  0  0
 13 14  1  0  0  0  0
 13 15  4  0  0  0  0
 15 16  4  0  0  0  0
 17 18  4  0  0  0  0
 18 19  4  0  0  0  0
 19 20  4  0  0  0  0
M  END
>  <Name_Molregno>
361616

>  <Alpha-2A>
6.74

>  <Alpha-2B>
8

>  <Alpha-2C>
8.7

>  <DOPAMINE D1>
7.01

>  <DOPAMINE D2>
5.72

>  <DOPAMINE D3>
6.41

>  <DOPAMINE D4>
7.05

>  <DOPAMINE D5>
8.15

$$$$
364634
  Marvin  02231216192D 0   1.00000     0.00000     0

 25 27  0  0  0  0  0  0  0  0999 V2000
   -0.5770   -1.1315    0.0000 O   0  0  0  0  0  0  0  0  0
    0.1375   -0.7190    0.0000 C   0  0  0  0  0  0  0  0  0
   -0.5770   -1.9565    0.0000 C   0  0  0  0  0  0  0  0  0
    0.1375   -2.3690    0.0000 C   0  0  0  0  0  0  0  0  0
    0.1375   -3.1940    0.0000 C   0  0  0  0  0  0  0  0  0
   -0.5770   -3.6065    0.0000 C   0  0  0  0  0  0  0  0  0
   -1.2915   -3.1940    0.0000 C   0  0  0  0  0  0  0  0  0
   -1.2915   -2.3690    0.0000 C   0  0  0  0  0  0  0  0  0
   -2.0059   -1.9565    0.0000 C   0  0  0  0  0  0  0  0  0
   -2.7204   -2.3690    0.0000 C   0  0  0  0  0  0  0  0  0
   -3.4349   -1.9565    0.0000 C   0  0  0  0  0  0  0  0  0
   -3.4349   -1.1315    0.0000 N   0  0  0  0  0  0  0  0  0
   -2.7204   -0.7190    0.0000 C   0  0  0  0  0  0  0  0  0
   -2.0059   -1.1315    0.0000 C   0  0  0  0  0  0  0  0  0
   -4.1494   -0.7190    0.0000 C   0  0  0  0  0  0  0  0  0
   -4.1494    0.1060    0.0000 N   0  0  0  0  0  0  0  0  0
   -4.8638    0.5185    0.0000 C   0  0  0  0  0  0  0  0  0
   -5.5783    0.1060    0.0000 O   0  0  0  0  0  0  0  0  0
   -4.8638    1.3435    0.0000 C   0  0  0  0  0  0  0  0  0
   -5.5783    1.7560    0.0000 C   0  0  0  0  0  0  0  0  0
   -5.5783    2.5810    0.0000 C   0  0  0  0  0  0  0  0  0
   -4.8638    2.9935    0.0000 C   0  0  0  0  0  0  0  0  0
   -4.1494    2.5810    0.0000 C   0  0  0  0  0  0  0  0  0
   -4.1494    1.7560    0.0000 C   0  0  0  0  0  0  0  0  0
   -6.2928    2.9935    0.0000 C   0  0  0  0  0  0  0  0  0
  1  2  1  0  0  0  0
  1  3  1  0  0  0  0
  3  4  4  0  0  0  0
  3  8  4  0  0  0  0
  4  5  4  0  0  0  0
  5  6  4  0  0  0  0
  6  7  4  0  0  0  0
  7  8  4  0  0  0  0
  8  9  1  0  0  0  0
  9 10  1  0  0  0  0
  9 14  1  0  0  0  0
 10 11  1  0  0  0  0
 11 12  1  0  0  0  0
 12 13  1  0  0  0  0
 12 15  1  0  0  0  0
 13 14  1  0  0  0  0
 15 16  1  0  0  0  0
 16 17  1  0  0  0  0
 17 18  2  0  0  0  0
 17 19  1  0  0  0  0
 19 20  4  0  0  0  0
 19 24  4  0  0  0  0
 20 21  4  0  0  0  0
 21 22  4  0  0  0  0
 21 25  1  0  0  0  0
 22 23  4  0  0  0  0
 23 24  4  0  0  0  0
M  END
>  <Name_Molregno>
364634

>  <DOPAMINE D2>
7.57

>  <DOPAMINE D4>
8.89

$$$$
364642
  Marvin  02231216192D 0   1.00000     0.00000     0

 23 25  0  0  0  0  0  0  0  0999 V2000
    1.5421    1.6276    0.0000 O   0  0  0  0  0  0  0  0  0
    2.2565    1.2151    0.0000 C   0  0  0  0  0  0  0  0  0
    2.2565    0.3901    0.0000 N   0  0  0  0  0  0  0  0  0
    1.5421   -0.0224    0.0000 C   0  0  0  0  0  0  0  0  0
    1.5421   -0.8474    0.0000 N   0  0  0  0  0  0  0  0  0
    2.2565   -1.2599    0.0000 C   0  0  0  0  0  0  0  0  0
    2.2565   -2.0849    0.0000 C   0  0  0  0  0  0  0  0  0
    1.5421   -2.4974    0.0000 C   0  0  0  0  0  0  0  0  0
    0.8276   -2.0849    0.0000 C   0  0  0  0  0  0  0  0  0
    0.8276   -1.2599    0.0000 C   0  0  0  0  0  0  0  0  0
    1.5421   -3.3224    0.0000 C   0  0  0  0  0  0  0  0  0
    2.2565   -3.7349    0.0000 N   0  0  0  0  0  0  0  0  0
    2.2565   -4.5599    0.0000 C   0  0  0  0  0  0  0  0  0
    1.5421   -4.9724    0.0000 C   0  0  0  0  0  0  0  0  0
    0.8276   -4.5599    0.0000 C   0  0  0  0  0  0  0  0  0
    0.8276   -3.7349    0.0000 C   0  0  0  0  0  0  0  0  0
    2.9710    1.6276    0.0000 C   0  0  0  0  0  0  0  0  0
    2.9710    2.4526    0.0000 C   0  0  0  0  0  0  0  0  0
    3.6855    2.8651    0.0000 C   0  0  0  0  0  0  0  0  0
    4.4000    2.4526    0.0000 C   0  0  0  0  0  0  0  0  0
    4.4000    1.6276    0.0000 C   0  0  0  0  0  0  0  0  0
    3.6855    1.2151    0.0000 C   0  0  0  0  0  0  0  0  0
    3.6855    3.6901    0.0000 C   0  0  0  0  0  0  0  0  0
  1  2  2  0  0  0  0
  2  3  1  0  0  0  0
  2 17  1  0  0  0  0
  3  4  1  0  0  0  0
  4  5  1  0  0  0  0
  5  6  1  0  0  0  0
  5 10  1  0  0  0  0
  6  7  1  0  0  0  0
  7  8  1  0  0  0  0
  8  9  1  0  0  0  0
  8 11  1  0  0  0  0
  9 10  1  0  0  0  0
 11 12  4  0  0  0  0
 11 16  4  0  0  0  0
 12 13  4  0  0  0  0
 13 14  4  0  0  0  0
 14 15  4  0  0  0  0
 15 16  4  0  0  0  0
 17 18  4  0  0  0  0
 17 22  4  0  0  0  0
 18 19  4  0  0  0  0
 19 20  4  0  0  0  0
 19 23  1  0  0  0  0
 20 21  4  0  0  0  0
 21 22  4  0  0  0  0
M  END
>  <Name_Molregno>
364642

>  <DOPAMINE D2>
5.46

>  <DOPAMINE D4>
7.49

$$$$
364649
  Marvin  02231216192D 0   1.00000     0.00000     0

 23 26  0  0  0  0  0  0  0  0999 V2000
    1.4515   -2.7342    0.0000 O   0  0  0  0  0  0  0  0  0
    1.8640   -2.0197    0.0000 C   0  0  0  0  0  0  0  0  0
    1.4515   -1.3053    0.0000 C   0  0  0  0  0  0  0  0  0
    1.8640   -0.5908    0.0000 C   0  0  0  0  0  0  0  0  0
    2.6890   -0.5908    0.0000 C   0  0  0  0  0  0  0  0  0
    3.1015   -1.3053    0.0000 N   0  0  0  0  0  0  0  0  0
    2.6890   -2.0197    0.0000 C   0  0  0  0  0  0  0  0  0
    3.1015    0.1237    0.0000 N   0  0  0  0  0  0  0  0  0
    2.6890    0.8382    0.0000 C   0  0  0  0  0  0  0  0  0
    3.1015    1.5526    0.0000 C   0  0  0  0  0  0  0  0  0
    3.9265    1.5526    0.0000 N   0  0  0  0  0  0  0  0  0
    4.3390    0.8382    0.0000 C   0  0  0  0  0  0  0  0  0
    3.9265    0.1237    0.0000 C   0  0  0  0  0  0  0  0  0
    4.3390    2.2671    0.0000 C   0  0  0  0  0  0  0  0  0
    5.1640    2.2671    0.0000 C   0  0  0  0  0  0  0  0  0
    5.6489    1.5997    0.0000 N   0  0  0  0  0  0  0  0  0
    6.4336    1.8546    0.0000 C   0  0  0  0  0  0  0  0  0
    6.4336    2.6796    0.0000 C   0  0  0  0  0  0  0  0  0
    5.6489    2.9345    0.0000 N   0  0  0  0  0  0  0  0  0
    7.1480    3.0921    0.0000 C   0  0  0  0  0  0  0  0  0
    7.8625    2.6796    0.0000 C   0  0  0  0  0  0  0  0  0
    7.8625    1.8546    0.0000 C   0  0  0  0  0  0  0  0  0
    7.1480    1.4421    0.0000 C   0  0  0  0  0  0  0  0  0
  1  2  1  0  0  0  0
  2  3  4  0  0  0  0
  2  7  4  0  0  0  0
  3  4  4  0  0  0  0
  4  5  4  0  0  0  0
  5  6  4  0  0  0  0
  5  8  1  0  0  0  0
  6  7  4  0  0  0  0
  8  9  1  0  0  0  0
  8 13  1  0  0  0  0
  9 10  1  0  0  0  0
 10 11  1  0  0  0  0
 11 12  1  0  0  0  0
 11 14  1  0  0  0  0
 12 13  1  0  0  0  0
 14 15  1  0  0  0  0
 15 16  4  0  0  0  0
 15 19  4  0  0  0  0
 16 17  4  0  0  0  0
 17 18  4  0  0  0  0
 17 23  4  0  0  0  0
 18 19  4  0  0  0  0
 18 20  4  0  0  0  0
 20 21  4  0  0  0  0
 21 22  4  0  0  0  0
 22 23  4  0  0  0  0
M  STY  1   1 DAT
M  SAL   1  1  16
M  SDT   1 MRV_IMPLICIT_H                                        
M  SDD   1     0.0000    0.0000    DR    ALL  0       0  
M  SED   1 IMPL_H1
M  END
>  <Name_Molregno>
364649

>  <DOPAMINE D2>
5

>  <DOPAMINE D4>
7.77

$$$$
364680
  Marvin  02231216192D 0   1.00000     0.00000     0

 25 27  0  0  0  0  0  0  0  0999 V2000
    6.1426    3.6435    0.0000 F   0  0  0  0  0  0  0  0  0
    6.1426    2.8185    0.0000 C   0  0  0  0  0  0  0  0  0
    6.8571    2.4060    0.0000 C   0  0  0  0  0  0  0  0  0
    6.8571    1.5810    0.0000 C   0  0  0  0  0  0  0  0  0
    7.5715    1.1685    0.0000 C   0  0  0  0  0  0  0  0  0
    6.1426    1.1685    0.0000 C   0  0  0  0  0  0  0  0  0
    6.1426    0.3435    0.0000 N   0  0  0  0  0  0  0  0  0
    5.4281   -0.0690    0.0000 C   0  0  0  0  0  0  0  0  0
    4.7136    0.3435    0.0000 O   0  0  0  0  0  0  0  0  0
    5.4281   -0.8940    0.0000 C   0  0  0  0  0  0  0  0  0
    4.7136   -1.3065    0.0000 N   0  0  0  0  0  0  0  0  0
    4.7136   -2.1315    0.0000 C   0  0  0  0  0  0  0  0  0
    3.9992   -2.5440    0.0000 C   0  0  0  0  0  0  0  0  0
    3.2847   -2.1315    0.0000 C   0  0  0  0  0  0  0  0  0
    3.2847   -1.3065    0.0000 C   0  0  0  0  0  0  0  0  0
    3.9992   -0.8940    0.0000 C   0  0  0  0  0  0  0  0  0
    2.5702   -2.5440    0.0000 C   0  0  0  0  0  0  0  0  0
    2.5702   -3.3690    0.0000 N   0  3  0  0  0  0  0  0  0
    3.2847   -3.7815    0.0000 O   0  5  0  0  0  0  0  0  0
    1.8558   -3.7815    0.0000 C   0  0  0  0  0  0  0  0  0
    1.1413   -3.3690    0.0000 C   0  0  0  0  0  0  0  0  0
    1.1413   -2.5440    0.0000 C   0  0  0  0  0  0  0  0  0
    1.8558   -2.1315    0.0000 C   0  0  0  0  0  0  0  0  0
    5.4281    1.5810    0.0000 C   0  0  0  0  0  0  0  0  0
    5.4281    2.4060    0.0000 C   0  0  0  0  0  0  0  0  0
  1  2  1  0  0  0  0
  2  3  4  0  0  0  0
  2 25  4  0  0  0  0
  3  4  4  0  0  0  0
  4  5  1  0  0  0  0
  4  6  4  0  0  0  0
  6  7  1  0  0  0  0
  6 24  4  0  0  0  0
  7  8  1  0  0  0  0
  8  9  2  0  0  0  0
  8 10  1  0  0  0  0
 10 11  1  0  0  0  0
 11 12  1  0  0  0  0
 11 16  1  0  0  0  0
 12 13  1  0  0  0  0
 13 14  1  0  0  0  0
 14 15  1  0  0  0  0
 14 17  1  0  0  0  0
 15 16  1  0  0  0  0
 17 18  4  0  0  0  0
 17 23  4  0  0  0  0
 18 19  1  0  0  0  0
 18 20  4  0  0  0  0
 20 21  4  0  0  0  0
 21 22  4  0  0  0  0
 22 23  4  0  0  0  0
 24 25  4  0  0  0  0
M  CHG  2  18   1  19  -1
M  END
>  <Name_Molregno>
364680

>  <DOPAMINE D2>
5

>  <DOPAMINE D4>
6.39

$$$$
364685
  Marvin  02231216192D 0   1.00000     0.00000     0

 23 25  0  0  0  0  0  0  0  0999 V2000
    0.5028   -1.1261    0.0000 O   0  0  0  0  0  0  0  0  0
   -0.2117   -0.7136    0.0000 C   0  0  0  0  0  0  0  0  0
   -0.9261   -1.1261    0.0000 N   0  0  0  0  0  0  0  0  0
   -0.9261   -1.9511    0.0000 C   0  0  0  0  0  0  0  0  0
   -0.2117   -2.3636    0.0000 C   0  0  0  0  0  0  0  0  0
   -0.2117   -3.1886    0.0000 C   0  0  0  0  0  0  0  0  0
   -0.9261   -3.6011    0.0000 C   0  0  0  0  0  0  0  0  0
   -1.6406   -3.1886    0.0000 C   0  0  0  0  0  0  0  0  0
   -1.6406   -2.3636    0.0000 C   0  0  0  0  0  0  0  0  0
    0.5028   -3.6011    0.0000 C   0  0  0  0  0  0  0  0  0
   -0.2117    0.1114    0.0000 C   0  0  0  0  0  0  0  0  0
    0.5028    0.5239    0.0000 N   0  0  0  0  0  0  0  0  0
    0.5028    1.3489    0.0000 C   0  0  0  0  0  0  0  0  0
    1.2173    1.7614    0.0000 C   0  0  0  0  0  0  0  0  0
    1.9318    1.3489    0.0000 C   0  0  0  0  0  0  0  0  0
    1.9318    0.5239    0.0000 C   0  0  0  0  0  0  0  0  0
    1.2173    0.1114    0.0000 C   0  0  0  0  0  0  0  0  0
    2.6462    1.7614    0.0000 C   0  0  0  0  0  0  0  0  0
    2.6462    2.5864    0.0000 N   0  0  0  0  0  0  0  0  0
    3.3607    2.9989    0.0000 C   0  0  0  0  0  0  0  0  0
    4.0752    2.5864    0.0000 C   0  0  0  0  0  0  0  0  0
    4.0752    1.7614    0.0000 C   0  0  0  0  0  0  0  0  0
    3.3607    1.3489    0.0000 C   0  0  0  0  0  0  0  0  0
  1  2  2  0  0  0  0
  2  3  1  0  0  0  0
  2 11  1  0  0  0  0
  3  4  1  0  0  0  0
  4  5  4  0  0  0  0
  4  9  4  0  0  0  0
  5  6  4  0  0  0  0
  6  7  4  0  0  0  0
  6 10  1  0  0  0  0
  7  8  4  0  0  0  0
  8  9  4  0  0  0  0
 11 12  1  0  0  0  0
 12 13  1  0  0  0  0
 12 17  1  0  0  0  0
 13 14  1  0  0  0  0
 14 15  1  0  0  0  0
 15 16  1  0  0  0  0
 15 18  1  0  0  0  0
 16 17  1  0  0  0  0
 18 19  4  0  0  0  0
 18 23  4  0  0  0  0
 19 20  4  0  0  0  0
 20 21  4  0  0  0  0
 21 22  4  0  0  0  0
 22 23  4  0  0  0  0
M  END
>  <Name_Molregno>
364685

>  <DOPAMINE D2>
5.54

>  <DOPAMINE D4>
8.1

$$$$
364742
  Marvin  02231216192D 0   1.00000     0.00000     0

 24 26  0  0  0  0  0  0  0  0999 V2000
    1.6160    1.8136    0.0000 O   0  0  0  0  0  0  0  0  0
    2.3304    1.4011    0.0000 C   0  0  0  0  0  0  0  0  0
    2.3304    0.5761    0.0000 N   0  0  0  0  0  0  0  0  0
    1.6160    0.1636    0.0000 C   0  0  0  0  0  0  0  0  0
    1.6160   -0.6614    0.0000 N   0  0  0  0  0  0  0  0  0
    2.3304   -1.0739    0.0000 C   0  0  0  0  0  0  0  0  0
    2.3304   -1.8989    0.0000 C   0  0  0  0  0  0  0  0  0
    1.6160   -2.3114    0.0000 C   0  0  0  0  0  0  0  0  0
    0.9015   -1.8989    0.0000 C   0  0  0  0  0  0  0  0  0
    0.9015   -1.0739    0.0000 C   0  0  0  0  0  0  0  0  0
    1.6160   -3.1364    0.0000 C   0  0  0  0  0  0  0  0  0
    2.3304   -3.5489    0.0000 N   0  3  0  0  0  0  0  0  0
    3.0449   -3.1364    0.0000 O   0  5  0  0  0  0  0  0  0
    2.3304   -4.3739    0.0000 C   0  0  0  0  0  0  0  0  0
    1.6160   -4.7864    0.0000 C   0  0  0  0  0  0  0  0  0
    0.9015   -4.3739    0.0000 C   0  0  0  0  0  0  0  0  0
    0.9015   -3.5489    0.0000 C   0  0  0  0  0  0  0  0  0
    3.0449    1.8136    0.0000 C   0  0  0  0  0  0  0  0  0
    3.0449    2.6386    0.0000 C   0  0  0  0  0  0  0  0  0
    3.7594    3.0511    0.0000 C   0  0  0  0  0  0  0  0  0
    4.4738    2.6386    0.0000 C   0  0  0  0  0  0  0  0  0
    4.4738    1.8136    0.0000 C   0  0  0  0  0  0  0  0  0
    3.7594    1.4011    0.0000 C   0  0  0  0  0  0  0  0  0
    3.7594    3.8761    0.0000 C   0  0  0  0  0  0  0  0  0
  1  2  2  0  0  0  0
  2  3  1  0  0  0  0
  2 18  1  0  0  0  0
  3  4  1  0  0  0  0
  4  5  1  0  0  0  0
  5  6  1  0  0  0  0
  5 10  1  0  0  0  0
  6  7  1  0  0  0  0
  7  8  1  0  0  0  0
  8  9  1  0  0  0  0
  8 11  1  0  0  0  0
  9 10  1  0  0  0  0
 11 12  4  0  0  0  0
 11 17  4  0  0  0  0
 12 13  1  0  0  0  0
 12 14  4  0  0  0  0
 14 15  4  0  0  0  0
 15 16  4  0  0  0  0
 16 17  4  0  0  0  0
 18 19  4  0  0  0  0
 18 23  4  0  0  0  0
 19 20  4  0  0  0  0
 20 21  4  0  0  0  0
 20 24  1  0  0  0  0
 21 22  4  0  0  0  0
 22 23  4  0  0  0  0
M  CHG  2  12   1  13  -1
M  END
>  <Name_Molregno>
364742

>  <DOPAMINE D2>
5

>  <DOPAMINE D4>
5.84

$$$$
364743
  Marvin  02231216192D 0   1.00000     0.00000     0

 24 26  0  0  0  0  0  0  0  0999 V2000
   -1.5500   -1.2793    0.0000 O   0  0  0  0  0  0  0  0  0
   -2.2644   -0.8668    0.0000 C   0  0  0  0  0  0  0  0  0
   -2.9789   -1.2793    0.0000 N   0  0  0  0  0  0  0  0  0
   -2.9789   -2.1043    0.0000 C   0  0  0  0  0  0  0  0  0
   -2.2644   -2.5168    0.0000 C   0  0  0  0  0  0  0  0  0
   -2.2644   -3.3418    0.0000 C   0  0  0  0  0  0  0  0  0
   -2.9789   -3.7543    0.0000 C   0  0  0  0  0  0  0  0  0
   -3.6934   -3.3418    0.0000 C   0  0  0  0  0  0  0  0  0
   -3.6934   -2.5168    0.0000 C   0  0  0  0  0  0  0  0  0
   -1.5500   -3.7543    0.0000 C   0  0  0  0  0  0  0  0  0
   -2.2644   -0.0418    0.0000 C   0  0  0  0  0  0  0  0  0
   -1.5500    0.3707    0.0000 N   0  0  0  0  0  0  0  0  0
   -1.5500    1.1957    0.0000 C   0  0  0  0  0  0  0  0  0
   -0.8355    1.6082    0.0000 C   0  0  0  0  0  0  0  0  0
   -0.1210    1.1957    0.0000 C   0  0  0  0  0  0  0  0  0
   -0.1210    0.3707    0.0000 C   0  0  0  0  0  0  0  0  0
   -0.8355   -0.0418    0.0000 C   0  0  0  0  0  0  0  0  0
    0.5935    1.6082    0.0000 C   0  0  0  0  0  0  0  0  0
    0.5935    2.4332    0.0000 N   0  3  0  0  0  0  0  0  0
   -0.1210    2.8457    0.0000 O   0  5  0  0  0  0  0  0  0
    1.3079    2.8457    0.0000 C   0  0  0  0  0  0  0  0  0
    2.0224    2.4332    0.0000 C   0  0  0  0  0  0  0  0  0
    2.0224    1.6082    0.0000 C   0  0  0  0  0  0  0  0  0
    1.3079    1.1957    0.0000 C   0  0  0  0  0  0  0  0  0
  1  2  2  0  0  0  0
  2  3  1  0  0  0  0
  2 11  1  0  0  0  0
  3  4  1  0  0  0  0
  4  5  4  0  0  0  0
  4  9  4  0  0  0  0
  5  6  4  0  0  0  0
  6  7  4  0  0  0  0
  6 10  1  0  0  0  0
  7  8  4  0  0  0  0
  8  9  4  0  0  0  0
 11 12  1  0  0  0  0
 12 13  1  0  0  0  0
 12 17  1  0  0  0  0
 13 14  1  0  0  0  0
 14 15  1  0  0  0  0
 15 16  1  0  0  0  0
 15 18  1  0  0  0  0
 16 17  1  0  0  0  0
 18 19  4  0  0  0  0
 18 24  4  0  0  0  0
 19 20  1  0  0  0  0
 19 21  4  0  0  0  0
 21 22  4  0  0  0  0
 22 23  4  0  0  0  0
 23 24  4  0  0  0  0
M  CHG  2  19   1  20  -1
M  END
>  <Name_Molregno>
364743

>  <DOPAMINE D2>
5

>  <DOPAMINE D4>
6.53

$$$$
366838
  Marvin  02231216192D 0   1.00000     0.00000     0

 31 34  0  0  0  0  0  0  0  0999 V2000
    0.8720    2.5321    0.0000 Br  0  0  0  0  0  0  0  0  0
    1.2845    1.8177    0.0000 C   0  0  0  0  0  0  0  0  0
    2.1095    1.8177    0.0000 C   0  0  0  0  0  0  0  0  0
    2.5220    1.1032    0.0000 C   0  0  0  0  0  0  0  0  0
    3.3290    0.9317    0.0000 C   0  0  0  0  0  0  0  0  0
    3.4152    0.1112    0.0000 C   0  0  0  0  0  0  0  0  0
    2.6615   -0.2244    0.0000 N   0  0  0  0  0  0  0  0  0
    2.1095    0.3887    0.0000 C   0  0  0  0  0  0  0  0  0
    1.2845    0.3887    0.0000 C   0  0  0  0  0  0  0  0  0
    0.8720    1.1032    0.0000 C   0  0  0  0  0  0  0  0  0
    4.1297   -0.3013    0.0000 C   0  0  0  0  0  0  0  0  0
    4.1297   -1.1263    0.0000 O   0  0  0  0  0  0  0  0  0
    4.8441    0.1112    0.0000 N   0  0  0  0  0  0  0  0  0
    5.5586   -0.3013    0.0000 C   0  0  0  0  0  0  0  0  0
    6.2731    0.1112    0.0000 C   0  0  0  0  0  0  0  0  0
    6.9875   -0.3013    0.0000 C   0  0  0  0  0  0  0  0  0
    7.7020    0.1112    0.0000 C   0  0  0  0  0  0  0  0  0
    8.4165   -0.3013    0.0000 N   0  0  0  0  0  0  0  0  0
    9.1310    0.1112    0.0000 C   0  0  0  0  0  0  0  0  0
    9.8454   -0.3013    0.0000 C   0  0  0  0  0  0  0  0  0
    9.8454   -1.1263    0.0000 N   0  0  0  0  0  0  0  0  0
    9.1310   -1.5388    0.0000 C   0  0  0  0  0  0  0  0  0
    8.4165   -1.1263    0.0000 C   0  0  0  0  0  0  0  0  0
   10.5599   -1.5388    0.0000 C   0  0  0  0  0  0  0  0  0
   11.2744   -1.1263    0.0000 C   0  0  0  0  0  0  0  0  0
   11.9888   -1.5388    0.0000 C   0  0  0  0  0  0  0  0  0
   11.9888   -2.3638    0.0000 C   0  0  0  0  0  0  0  0  0
   11.2744   -2.7763    0.0000 C   0  0  0  0  0  0  0  0  0
   10.5599   -2.3638    0.0000 C   0  0  0  0  0  0  0  0  0
    9.8454   -2.7763    0.0000 O   0  0  0  0  0  0  0  0  0
    9.8454   -3.6013    0.0000 C   0  0  0  0  0  0  0  0  0
  1  2  1  0  0  0  0
  2  3  4  0  0  0  0
  2 10  4  0  0  0  0
  3  4  4  0  0  0  0
  4  5  4  0  0  0  0
  4  8  4  0  0  0  0
  5  6  4  0  0  0  0
  6  7  4  0  0  0  0
  6 11  1  0  0  0  0
  7  8  4  0  0  0  0
  8  9  4  0  0  0  0
  9 10  4  0  0  0  0
 11 12  2  0  0  0  0
 11 13  1  0  0  0  0
 13 14  1  0  0  0  0
 14 15  1  0  0  0  0
 15 16  1  0  0  0  0
 16 17  1  0  0  0  0
 17 18  1  0  0  0  0
 18 19  1  0  0  0  0
 18 23  1  0  0  0  0
 19 20  1  0  0  0  0
 20 21  1  0  0  0  0
 21 22  1  0  0  0  0
 21 24  1  0  0  0  0
 22 23  1  0  0  0  0
 24 25  4  0  0  0  0
 24 29  4  0  0  0  0
 25 26  4  0  0  0  0
 26 27  4  0  0  0  0
 27 28  4  0  0  0  0
 28 29  4  0  0  0  0
 29 30  1  0  0  0  0
 30 31  1  0  0  0  0
M  STY  1   1 DAT
M  SAL   1  1   7
M  SDT   1 MRV_IMPLICIT_H                                        
M  SDD   1     0.0000    0.0000    DR    ALL  0       0  
M  SED   1 IMPL_H1
M  END
>  <Name_Molregno>
366838

>  <DOPAMINE D2>
6.96

>  <DOPAMINE D3>
9.61

>  <DOPAMINE D4>
7.8

$$$$
366839
  Marvin  02231216192D 0   1.00000     0.00000     0

 32 35  0  0  0  0  0  0  0  0999 V2000
   -9.6605    0.1014    0.0000 O   0  0  0  0  0  0  0  0  0
  -10.3750   -0.3111    0.0000 C   0  0  0  0  0  0  0  0  0
   -9.6605    0.9264    0.0000 C   0  0  0  0  0  0  0  0  0
  -10.3750    1.3389    0.0000 C   0  0  0  0  0  0  0  0  0
  -10.3750    2.1639    0.0000 C   0  0  0  0  0  0  0  0  0
   -9.6605    2.5764    0.0000 C   0  0  0  0  0  0  0  0  0
   -8.9460    2.1639    0.0000 C   0  0  0  0  0  0  0  0  0
   -8.9460    1.3389    0.0000 C   0  0  0  0  0  0  0  0  0
   -8.2316    0.9264    0.0000 N   0  0  0  0  0  0  0  0  0
   -7.5171    1.3389    0.0000 C   0  0  0  0  0  0  0  0  0
   -6.8026    0.9264    0.0000 C   0  0  0  0  0  0  0  0  0
   -6.8026    0.1014    0.0000 N   0  0  0  0  0  0  0  0  0
   -7.5171   -0.3111    0.0000 C   0  0  0  0  0  0  0  0  0
   -8.2316    0.1014    0.0000 C   0  0  0  0  0  0  0  0  0
   -6.0882   -0.3111    0.0000 C   0  0  0  0  0  0  0  0  0
   -5.3737    0.1014    0.0000 C   0  0  0  0  0  0  0  0  0
   -4.6592   -0.3111    0.0000 C   0  0  0  0  0  0  0  0  0
   -3.9447    0.1014    0.0000 C   0  0  0  0  0  0  0  0  0
   -3.2303   -0.3111    0.0000 N   0  0  0  0  0  0  0  0  0
   -2.5158    0.1014    0.0000 C   0  0  0  0  0  0  0  0  0
   -2.5158    0.9264    0.0000 O   0  0  0  0  0  0  0  0  0
   -1.8013   -0.3111    0.0000 C   0  0  0  0  0  0  0  0  0
   -1.0477    0.0245    0.0000 N   0  0  0  0  0  0  0  0  0
   -0.4956   -0.5886    0.0000 C   0  0  0  0  0  0  0  0  0
    0.3294   -0.5886    0.0000 C   0  0  0  0  0  0  0  0  0
    0.7419   -1.3031    0.0000 C   0  0  0  0  0  0  0  0  0
    0.3294   -2.0176    0.0000 C   0  0  0  0  0  0  0  0  0
   -0.4956   -2.0176    0.0000 C   0  0  0  0  0  0  0  0  0
   -0.9081   -1.3031    0.0000 C   0  0  0  0  0  0  0  0  0
   -1.7151   -1.1316    0.0000 C   0  0  0  0  0  0  0  0  0
    1.5669   -1.3031    0.0000 C   0  0  0  0  0  0  0  0  0
    2.3919   -1.3031    0.0000 N   0  0  0  0  0  0  0  0  0
  1  2  1  0  0  0  0
  1  3  1  0  0  0  0
  3  4  4  0  0  0  0
  3  8  4  0  0  0  0
  4  5  4  0  0  0  0
  5  6  4  0  0  0  0
  6  7  4  0  0  0  0
  7  8  4  0  0  0  0
  8  9  1  0  0  0  0
  9 10  1  0  0  0  0
  9 14  1  0  0  0  0
 10 11  1  0  0  0  0
 11 12  1  0  0  0  0
 12 13  1  0  0  0  0
 12 15  1  0  0  0  0
 13 14  1  0  0  0  0
 15 16  1  0  0  0  0
 16 17  1  0  0  0  0
 17 18  1  0  0  0  0
 18 19  1  0  0  0  0
 19 20  1  0  0  0  0
 20 21  2  0  0  0  0
 20 22  1  0  0  0  0
 22 23  4  0  0  0  0
 22 30  4  0  0  0  0
 23 24  4  0  0  0  0
 24 25  4  0  0  0  0
 24 29  4  0  0  0  0
 25 26  4  0  0  0  0
 26 27  4  0  0  0  0
 26 31  1  0  0  0  0
 27 28  4  0  0  0  0
 28 29  4  0  0  0  0
 29 30  4  0  0  0  0
 31 32  3  0  0  0  0
M  STY  1   1 DAT
M  SAL   1  1  23
M  SDT   1 MRV_IMPLICIT_H                                        
M  SDD   1     0.0000    0.0000    DR    ALL  0       0  
M  SED   1 IMPL_H1
M  END
>  <Name_Molregno>
366839

>  <DOPAMINE D2>
6.8

>  <DOPAMINE D3>
9.6

>  <DOPAMINE D4>
7.4

$$$$
366846
  Marvin  02231216192D 0   1.00000     0.00000     0

 31 34  0  0  0  0  0  0  0  0999 V2000
    0.8327    2.2710    0.0000 Br  0  0  0  0  0  0  0  0  0
    1.2452    1.5565    0.0000 C   0  0  0  0  0  0  0  0  0
    2.0702    1.5565    0.0000 C   0  0  0  0  0  0  0  0  0
    2.4827    0.8421    0.0000 C   0  0  0  0  0  0  0  0  0
    3.2897    0.6705    0.0000 C   0  0  0  0  0  0  0  0  0
    3.3760   -0.1499    0.0000 C   0  0  0  0  0  0  0  0  0
    2.6223   -0.4855    0.0000 N   0  0  0  0  0  0  0  0  0
    2.0702    0.1276    0.0000 C   0  0  0  0  0  0  0  0  0
    1.2452    0.1276    0.0000 C   0  0  0  0  0  0  0  0  0
    0.8327    0.8421    0.0000 C   0  0  0  0  0  0  0  0  0
    4.0904   -0.5624    0.0000 C   0  0  0  0  0  0  0  0  0
    4.0904   -1.3874    0.0000 O   0  0  0  0  0  0  0  0  0
    4.8049   -0.1499    0.0000 N   0  0  0  0  0  0  0  0  0
    5.5194   -0.5624    0.0000 C   0  0  0  0  0  0  0  0  0
    6.2338   -0.1499    0.0000 C   0  0  0  0  0  0  0  0  0
    6.9483   -0.5624    0.0000 C   0  0  0  0  0  0  0  0  0
    7.6628   -0.1499    0.0000 C   0  0  0  0  0  0  0  0  0
    8.3772   -0.5624    0.0000 N   0  0  0  0  0  0  0  0  0
    9.0917   -0.1499    0.0000 C   0  0  0  0  0  0  0  0  0
    9.8062   -0.5624    0.0000 C   0  0  0  0  0  0  0  0  0
    9.8062   -1.3874    0.0000 N   0  0  0  0  0  0  0  0  0
    9.0917   -1.7999    0.0000 C   0  0  0  0  0  0  0  0  0
    8.3772   -1.3874    0.0000 C   0  0  0  0  0  0  0  0  0
   10.5207   -1.7999    0.0000 C   0  0  0  0  0  0  0  0  0
   11.2351   -1.3874    0.0000 C   0  0  0  0  0  0  0  0  0
   11.9496   -1.7999    0.0000 C   0  0  0  0  0  0  0  0  0
   11.9496   -2.6249    0.0000 C   0  0  0  0  0  0  0  0  0
   11.2351   -3.0374    0.0000 C   0  0  0  0  0  0  0  0  0
   11.2351   -3.8624    0.0000 Cl  0  0  0  0  0  0  0  0  0
   10.5207   -2.6249    0.0000 C   0  0  0  0  0  0  0  0  0
    9.8062   -3.0374    0.0000 Cl  0  0  0  0  0  0  0  0  0
  1  2  1  0  0  0  0
  2  3  4  0  0  0  0
  2 10  4  0  0  0  0
  3  4  4  0  0  0  0
  4  5  4  0  0  0  0
  4  8  4  0  0  0  0
  5  6  4  0  0  0  0
  6  7  4  0  0  0  0
  6 11  1  0  0  0  0
  7  8  4  0  0  0  0
  8  9  4  0  0  0  0
  9 10  4  0  0  0  0
 11 12  2  0  0  0  0
 11 13  1  0  0  0  0
 13 14  1  0  0  0  0
 14 15  1  0  0  0  0
 15 16  1  0  0  0  0
 16 17  1  0  0  0  0
 17 18  1  0  0  0  0
 18 19  1  0  0  0  0
 18 23  1  0  0  0  0
 19 20  1  0  0  0  0
 20 21  1  0  0  0  0
 21 22  1  0  0  0  0
 21 24  1  0  0  0  0
 22 23  1  0  0  0  0
 24 25  4  0  0  0  0
 24 30  4  0  0  0  0
 25 26  4  0  0  0  0
 26 27  4  0  0  0  0
 27 28  4  0  0  0  0
 28 29  1  0  0  0  0
 28 30  4  0  0  0  0
 30 31  1  0  0  0  0
M  STY  1   1 DAT
M  SAL   1  1   7
M  SDT   1 MRV_IMPLICIT_H                                        
M  SDD   1     0.0000    0.0000    DR    ALL  0       0  
M  SED   1 IMPL_H1
M  END
>  <Name_Molregno>
366846

>  <DOPAMINE D2>
5.64

>  <DOPAMINE D3>
9.13

>  <DOPAMINE D4>
6.22

$$$$
366847
  Marvin  02231216192D 0   1.00000     0.00000     0

 32 35  0  0  0  0  0  0  0  0999 V2000
   -0.0621   -0.1415    0.0000 Cl  0  0  0  0  0  0  0  0  0
   -0.0621   -0.9665    0.0000 C   0  0  0  0  0  0  0  0  0
    0.6523   -1.3790    0.0000 C   0  0  0  0  0  0  0  0  0
    1.3668   -0.9665    0.0000 N   0  0  0  0  0  0  0  0  0
    1.3668   -0.1415    0.0000 C   0  0  0  0  0  0  0  0  0
    2.0813    0.2710    0.0000 C   0  0  0  0  0  0  0  0  0
    2.7958   -0.1415    0.0000 N   0  0  0  0  0  0  0  0  0
    2.7958   -0.9665    0.0000 C   0  0  0  0  0  0  0  0  0
    2.0813   -1.3790    0.0000 C   0  0  0  0  0  0  0  0  0
    3.5102    0.2710    0.0000 C   0  0  0  0  0  0  0  0  0
    4.2247   -0.1415    0.0000 C   0  0  0  0  0  0  0  0  0
    4.9392    0.2710    0.0000 C   0  0  0  0  0  0  0  0  0
    5.6536   -0.1415    0.0000 C   0  0  0  0  0  0  0  0  0
    6.3681    0.2710    0.0000 N   0  0  0  0  0  0  0  0  0
    7.0826   -0.1415    0.0000 C   0  0  0  0  0  0  0  0  0
    7.0826   -0.9665    0.0000 O   0  0  0  0  0  0  0  0  0
    7.7971    0.2710    0.0000 C   0  0  0  0  0  0  0  0  0
    7.8833    1.0915    0.0000 N   0  0  0  0  0  0  0  0  0
    8.6903    1.2630    0.0000 C   0  0  0  0  0  0  0  0  0
    9.1028    1.9775    0.0000 C   0  0  0  0  0  0  0  0  0
    9.9278    1.9775    0.0000 C   0  0  0  0  0  0  0  0  0
   10.3403    1.2630    0.0000 C   0  0  0  0  0  0  0  0  0
    9.9278    0.5485    0.0000 C   0  0  0  0  0  0  0  0  0
    9.1028    0.5485    0.0000 C   0  0  0  0  0  0  0  0  0
    8.5507   -0.0646    0.0000 C   0  0  0  0  0  0  0  0  0
   10.3403    2.6919    0.0000 C   0  0  0  0  0  0  0  0  0
   10.7528    3.4064    0.0000 N   0  0  0  0  0  0  0  0  0
    0.6523   -2.2040    0.0000 C   0  0  0  0  0  0  0  0  0
   -0.0621   -2.6165    0.0000 C   0  0  0  0  0  0  0  0  0
   -0.7766   -2.2040    0.0000 C   0  0  0  0  0  0  0  0  0
   -0.7766   -1.3790    0.0000 C   0  0  0  0  0  0  0  0  0
   -1.4911   -0.9665    0.0000 Cl  0  0  0  0  0  0  0  0  0
  1  2  1  0  0  0  0
  2  3  4  0  0  0  0
  2 31  4  0  0  0  0
  3  4  1  0  0  0  0
  3 28  4  0  0  0  0
  4  5  1  0  0  0  0
  4  9  1  0  0  0  0
  5  6  1  0  0  0  0
  6  7  1  0  0  0  0
  7  8  1  0  0  0  0
  7 10  1  0  0  0  0
  8  9  1  0  0  0  0
 10 11  1  0  0  0  0
 11 12  1  0  0  0  0
 12 13  1  0  0  0  0
 13 14  1  0  0  0  0
 14 15  1  0  0  0  0
 15 16  2  0  0  0  0
 15 17  1  0  0  0  0
 17 18  4  0  0  0  0
 17 25  4  0  0  0  0
 18 19  4  0  0  0  0
 19 20  4  0  0  0  0
 19 24  4  0  0  0  0
 20 21  4  0  0  0  0
 21 22  4  0  0  0  0
 21 26  1  0  0  0  0
 22 23  4  0  0  0  0
 23 24  4  0  0  0  0
 24 25  4  0  0  0  0
 26 27  3  0  0  0  0
 28 29  4  0  0  0  0
 29 30  4  0  0  0  0
 30 31  4  0  0  0  0
 31 32  1  0  0  0  0
M  STY  1   1 DAT
M  SAL   1  1  18
M  SDT   1 MRV_IMPLICIT_H                                        
M  SDD   1     0.0000    0.0000    DR    ALL  0       0  
M  SED   1 IMPL_H1
M  END
>  <Name_Molregno>
366847

>  <DOPAMINE D2>
6.47

>  <DOPAMINE D3>
9.45

>  <DOPAMINE D4>
6.2

$$$$
366907
  Marvin  02231216192D 0   1.00000     0.00000     0

 30 33  0  0  0  0  0  0  0  0999 V2000
    1.2558   -2.3881    0.0000 Cl  0  0  0  0  0  0  0  0  0
    0.5413   -1.9756    0.0000 C   0  0  0  0  0  0  0  0  0
   -0.1732   -2.3881    0.0000 C   0  0  0  0  0  0  0  0  0
   -0.8877   -1.9756    0.0000 C   0  0  0  0  0  0  0  0  0
   -0.8877   -1.1506    0.0000 C   0  0  0  0  0  0  0  0  0
   -0.1732   -0.7381    0.0000 C   0  0  0  0  0  0  0  0  0
    0.5413   -1.1506    0.0000 C   0  0  0  0  0  0  0  0  0
    1.2558   -0.7381    0.0000 N   0  0  0  0  0  0  0  0  0
    1.2558    0.0869    0.0000 C   0  0  0  0  0  0  0  0  0
    1.9702    0.4994    0.0000 C   0  0  0  0  0  0  0  0  0
    2.6847    0.0869    0.0000 N   0  0  0  0  0  0  0  0  0
    2.6847   -0.7381    0.0000 C   0  0  0  0  0  0  0  0  0
    1.9702   -1.1506    0.0000 C   0  0  0  0  0  0  0  0  0
    3.3992    0.4994    0.0000 C   0  0  0  0  0  0  0  0  0
    4.1136    0.0869    0.0000 C   0  0  0  0  0  0  0  0  0
    4.8281    0.4994    0.0000 C   0  0  0  0  0  0  0  0  0
    5.5426    0.0869    0.0000 C   0  0  0  0  0  0  0  0  0
    6.2571    0.4994    0.0000 N   0  0  0  0  0  0  0  0  0
    6.9715    0.0869    0.0000 C   0  0  0  0  0  0  0  0  0
    6.9715   -0.7381    0.0000 O   0  0  0  0  0  0  0  0  0
    7.6860    0.4994    0.0000 C   0  0  0  0  0  0  0  0  0
    8.4005    0.0869    0.0000 C   0  0  0  0  0  0  0  0  0
    9.1149    0.4994    0.0000 C   0  0  0  0  0  0  0  0  0
    9.1149    1.3244    0.0000 C   0  0  0  0  0  0  0  0  0
    8.4005    1.7369    0.0000 C   0  0  0  0  0  0  0  0  0
    7.6860    1.3244    0.0000 C   0  0  0  0  0  0  0  0  0
    9.8294    1.7369    0.0000 C   0  0  0  0  0  0  0  0  0
   10.5439    1.3244    0.0000 C   0  0  0  0  0  0  0  0  0
   10.5439    0.4994    0.0000 C   0  0  0  0  0  0  0  0  0
    9.8294    0.0869    0.0000 C   0  0  0  0  0  0  0  0  0
  1  2  1  0  0  0  0
  2  3  4  0  0  0  0
  2  7  4  0  0  0  0
  3  4  4  0  0  0  0
  4  5  4  0  0  0  0
  5  6  4  0  0  0  0
  6  7  4  0  0  0  0
  7  8  1  0  0  0  0
  8  9  1  0  0  0  0
  8 13  1  0  0  0  0
  9 10  1  0  0  0  0
 10 11  1  0  0  0  0
 11 12  1  0  0  0  0
 11 14  1  0  0  0  0
 12 13  1  0  0  0  0
 14 15  1  0  0  0  0
 15 16  1  0  0  0  0
 16 17  1  0  0  0  0
 17 18  1  0  0  0  0
 18 19  1  0  0  0  0
 19 20  2  0  0  0  0
 19 21  1  0  0  0  0
 21 22  4  0  0  0  0
 21 26  4  0  0  0  0
 22 23  4  0  0  0  0
 23 24  4  0  0  0  0
 23 30  4  0  0  0  0
 24 25  4  0  0  0  0
 24 27  4  0  0  0  0
 25 26  4  0  0  0  0
 27 28  4  0  0  0  0
 28 29  4  0  0  0  0
 29 30  4  0  0  0  0
M  END
>  <Name_Molregno>
366907

>  <DOPAMINE D2>
6.34

>  <DOPAMINE D3>
9

>  <DOPAMINE D4>
6.7

$$$$
366908
  Marvin  02231216192D 0   1.00000     0.00000     0

 27 29  0  0  0  0  0  0  0  0999 V2000
   -8.3069   -0.3607    0.0000 Cl  0  0  0  0  0  0  0  0  0
   -8.3069    0.4643    0.0000 C   0  0  0  0  0  0  0  0  0
   -9.0214    0.8768    0.0000 C   0  0  0  0  0  0  0  0  0
   -9.0214    1.7018    0.0000 C   0  0  0  0  0  0  0  0  0
   -8.3069    2.1143    0.0000 C   0  0  0  0  0  0  0  0  0
   -7.5924    1.7018    0.0000 C   0  0  0  0  0  0  0  0  0
   -7.5924    0.8768    0.0000 C   0  0  0  0  0  0  0  0  0
   -6.8779    0.4643    0.0000 N   0  0  0  0  0  0  0  0  0
   -6.1635    0.8768    0.0000 C   0  0  0  0  0  0  0  0  0
   -5.4490    0.4643    0.0000 C   0  0  0  0  0  0  0  0  0
   -5.4490   -0.3607    0.0000 N   0  0  0  0  0  0  0  0  0
   -6.1635   -0.7732    0.0000 C   0  0  0  0  0  0  0  0  0
   -6.8779   -0.3607    0.0000 C   0  0  0  0  0  0  0  0  0
   -4.7345   -0.7732    0.0000 C   0  0  0  0  0  0  0  0  0
   -4.0201   -0.3607    0.0000 C   0  0  0  0  0  0  0  0  0
   -3.3056   -0.7732    0.0000 C   0  0  0  0  0  0  0  0  0
   -2.5911   -0.3607    0.0000 C   0  0  0  0  0  0  0  0  0
   -1.8766   -0.7732    0.0000 N   0  0  0  0  0  0  0  0  0
   -1.1622   -0.3607    0.0000 C   0  0  0  0  0  0  0  0  0
   -1.1622    0.4643    0.0000 O   0  0  0  0  0  0  0  0  0
   -0.4477   -0.7732    0.0000 C   0  0  0  0  0  0  0  0  0
    0.2668   -0.3607    0.0000 C   0  0  0  0  0  0  0  0  0
    0.9812   -0.7732    0.0000 C   0  0  0  0  0  0  0  0  0
    0.9812   -1.5982    0.0000 C   0  0  0  0  0  0  0  0  0
    1.6957   -2.0107    0.0000 Cl  0  0  0  0  0  0  0  0  0
    0.2668   -2.0107    0.0000 C   0  0  0  0  0  0  0  0  0
   -0.4477   -1.5982    0.0000 C   0  0  0  0  0  0  0  0  0
  1  2  1  0  0  0  0
  2  3  4  0  0  0  0
  2  7  4  0  0  0  0
  3  4  4  0  0  0  0
  4  5  4  0  0  0  0
  5  6  4  0  0  0  0
  6  7  4  0  0  0  0
  7  8  1  0  0  0  0
  8  9  1  0  0  0  0
  8 13  1  0  0  0  0
  9 10  1  0  0  0  0
 10 11  1  0  0  0  0
 11 12  1  0  0  0  0
 11 14  1  0  0  0  0
 12 13  1  0  0  0  0
 14 15  1  0  0  0  0
 15 16  1  0  0  0  0
 16 17  1  0  0  0  0
 17 18  1  0  0  0  0
 18 19  1  0  0  0  0
 19 20  2  0  0  0  0
 19 21  1  0  0  0  0
 21 22  4  0  0  0  0
 21 27  4  0  0  0  0
 22 23  4  0  0  0  0
 23 24  4  0  0  0  0
 24 25  1  0  0  0  0
 24 26  4  0  0  0  0
 26 27  4  0  0  0  0
M  END
>  <Name_Molregno>
366908

>  <DOPAMINE D2>
6.33

>  <DOPAMINE D3>
8.77

>  <DOPAMINE D4>
6.55

$$$$
366928
  Marvin  02231216192D 0   1.00000     0.00000     0

 30 32  0  0  0  0  0  0  0  0999 V2000
   -0.1729   -0.2766    0.0000 Cl  0  0  0  0  0  0  0  0  0
   -0.1729    0.5484    0.0000 C   0  0  0  0  0  0  0  0  0
   -0.8874    0.9609    0.0000 C   0  0  0  0  0  0  0  0  0
   -0.8874    1.7859    0.0000 C   0  0  0  0  0  0  0  0  0
   -0.1729    2.1984    0.0000 C   0  0  0  0  0  0  0  0  0
    0.5415    1.7859    0.0000 C   0  0  0  0  0  0  0  0  0
    0.5415    0.9609    0.0000 C   0  0  0  0  0  0  0  0  0
    1.2560    0.5484    0.0000 N   0  0  0  0  0  0  0  0  0
    1.9705    0.9609    0.0000 C   0  0  0  0  0  0  0  0  0
    2.6850    0.5484    0.0000 C   0  0  0  0  0  0  0  0  0
    2.6850   -0.2766    0.0000 N   0  0  0  0  0  0  0  0  0
    1.9705   -0.6891    0.0000 C   0  0  0  0  0  0  0  0  0
    1.2560   -0.2766    0.0000 C   0  0  0  0  0  0  0  0  0
    3.3994   -0.6891    0.0000 C   0  0  0  0  0  0  0  0  0
    4.1139   -0.2766    0.0000 C   0  0  0  0  0  0  0  0  0
    4.8284   -0.6891    0.0000 C   0  0  0  0  0  0  0  0  0
    5.5428   -0.2766    0.0000 C   0  0  0  0  0  0  0  0  0
    6.2573   -0.6891    0.0000 N   0  0  0  0  0  0  0  0  0
    6.9718   -0.2766    0.0000 C   0  0  0  0  0  0  0  0  0
    6.9718    0.5484    0.0000 O   0  0  0  0  0  0  0  0  0
    7.6863   -0.6891    0.0000 C   0  0  0  0  0  0  0  0  0
    8.4007   -0.2766    0.0000 C   0  0  0  0  0  0  0  0  0
    9.1152   -0.6891    0.0000 C   0  0  0  0  0  0  0  0  0
    9.8297   -0.2766    0.0000 O   0  0  0  0  0  0  0  0  0
   10.5441   -0.6891    0.0000 C   0  0  0  0  0  0  0  0  0
    9.1152   -1.5141    0.0000 C   0  0  0  0  0  0  0  0  0
    9.8297   -1.9266    0.0000 O   0  0  0  0  0  0  0  0  0
   10.5441   -1.5141    0.0000 C   0  0  0  0  0  0  0  0  0
    8.4007   -1.9266    0.0000 C   0  0  0  0  0  0  0  0  0
    7.6863   -1.5141    0.0000 C   0  0  0  0  0  0  0  0  0
  1  2  1  0  0  0  0
  2  3  4  0  0  0  0
  2  7  4  0  0  0  0
  3  4  4  0  0  0  0
  4  5  4  0  0  0  0
  5  6  4  0  0  0  0
  6  7  4  0  0  0  0
  7  8  1  0  0  0  0
  8  9  1  0  0  0  0
  8 13  1  0  0  0  0
  9 10  1  0  0  0  0
 10 11  1  0  0  0  0
 11 12  1  0  0  0  0
 11 14  1  0  0  0  0
 12 13  1  0  0  0  0
 14 15  1  0  0  0  0
 15 16  1  0  0  0  0
 16 17  1  0  0  0  0
 17 18  1  0  0  0  0
 18 19  1  0  0  0  0
 19 20  2  0  0  0  0
 19 21  1  0  0  0  0
 21 22  4  0  0  0  0
 21 30  4  0  0  0  0
 22 23  4  0  0  0  0
 23 24  1  0  0  0  0
 23 26  4  0  0  0  0
 24 25  1  0  0  0  0
 26 27  1  0  0  0  0
 26 29  4  0  0  0  0
 27 28  1  0  0  0  0
 29 30  4  0  0  0  0
M  END
>  <Name_Molregno>
366928

>  <DOPAMINE D2>
6.55

>  <DOPAMINE D3>
8.51

>  <DOPAMINE D4>
6.77

$$$$
366929
  Marvin  02231216192D 0   1.00000     0.00000     0

 32 35  0  0  0  0  0  0  0  0999 V2000
  -10.3568    0.3497    0.0000 Cl  0  0  0  0  0  0  0  0  0
  -10.3568    1.1747    0.0000 C   0  0  0  0  0  0  0  0  0
  -11.0713    1.5872    0.0000 C   0  0  0  0  0  0  0  0  0
  -11.0713    2.4122    0.0000 C   0  0  0  0  0  0  0  0  0
  -10.3568    2.8247    0.0000 C   0  0  0  0  0  0  0  0  0
   -9.6424    2.4122    0.0000 C   0  0  0  0  0  0  0  0  0
   -9.6424    1.5872    0.0000 C   0  0  0  0  0  0  0  0  0
   -8.9279    1.1747    0.0000 N   0  0  0  0  0  0  0  0  0
   -8.2134    1.5872    0.0000 C   0  0  0  0  0  0  0  0  0
   -7.4990    1.1747    0.0000 C   0  0  0  0  0  0  0  0  0
   -7.4990    0.3497    0.0000 N   0  0  0  0  0  0  0  0  0
   -8.2134   -0.0628    0.0000 C   0  0  0  0  0  0  0  0  0
   -8.9279    0.3497    0.0000 C   0  0  0  0  0  0  0  0  0
   -6.7845   -0.0628    0.0000 C   0  0  0  0  0  0  0  0  0
   -6.0700    0.3497    0.0000 C   0  0  0  0  0  0  0  0  0
   -5.3555   -0.0628    0.0000 C   0  0  0  0  0  0  0  0  0
   -4.6411    0.3497    0.0000 C   0  0  0  0  0  0  0  0  0
   -3.9266   -0.0628    0.0000 N   0  0  0  0  0  0  0  0  0
   -3.2121    0.3497    0.0000 C   0  0  0  0  0  0  0  0  0
   -3.2121    1.1747    0.0000 O   0  0  0  0  0  0  0  0  0
   -2.4977   -0.0628    0.0000 C   0  0  0  0  0  0  0  0  0
   -1.7832    0.3497    0.0000 C   0  0  0  0  0  0  0  0  0
   -1.0687   -0.0628    0.0000 C   0  0  0  0  0  0  0  0  0
   -1.0687   -0.8878    0.0000 C   0  0  0  0  0  0  0  0  0
   -1.7832   -1.3003    0.0000 C   0  0  0  0  0  0  0  0  0
   -2.4977   -0.8878    0.0000 C   0  0  0  0  0  0  0  0  0
   -0.3542   -1.3003    0.0000 C   0  0  0  0  0  0  0  0  0
    0.3602   -0.8878    0.0000 C   0  0  0  0  0  0  0  0  0
    1.0747   -1.3003    0.0000 C   0  0  0  0  0  0  0  0  0
    1.0747   -2.1253    0.0000 C   0  0  0  0  0  0  0  0  0
    0.3602   -2.5378    0.0000 C   0  0  0  0  0  0  0  0  0
   -0.3542   -2.1253    0.0000 C   0  0  0  0  0  0  0  0  0
  1  2  1  0  0  0  0
  2  3  4  0  0  0  0
  2  7  4  0  0  0  0
  3  4  4  0  0  0  0
  4  5  4  0  0  0  0
  5  6  4  0  0  0  0
  6  7  4  0  0  0  0
  7  8  1  0  0  0  0
  8  9  1  0  0  0  0
  8 13  1  0  0  0  0
  9 10  1  0  0  0  0
 10 11  1  0  0  0  0
 11 12  1  0  0  0  0
 11 14  1  0  0  0  0
 12 13  1  0  0  0  0
 14 15  1  0  0  0  0
 15 16  1  0  0  0  0
 16 17  1  0  0  0  0
 17 18  1  0  0  0  0
 18 19  1  0  0  0  0
 19 20  2  0  0  0  0
 19 21  1  0  0  0  0
 21 22  4  0  0  0  0
 21 26  4  0  0  0  0
 22 23  4  0  0  0  0
 23 24  4  0  0  0  0
 24 25  4  0  0  0  0
 24 27  1  0  0  0  0
 25 26  4  0  0  0  0
 27 28  4  0  0  0  0
 27 32  4  0  0  0  0
 28 29  4  0  0  0  0
 29 30  4  0  0  0  0
 30 31  4  0  0  0  0
 31 32  4  0  0  0  0
M  END
>  <Name_Molregno>
366929

>  <DOPAMINE D2>
6.89

>  <DOPAMINE D3>
9.55

>  <DOPAMINE D4>
6.62

$$$$
366947
  Marvin  02231216192D 0   1.00000     0.00000     0

 32 35  0  0  0  0  0  0  0  0999 V2000
   -6.0768    1.9615    0.0000 S   0  0  0  0  0  0  0  0  0
   -6.8838    2.1331    0.0000 C   0  0  0  0  0  0  0  0  0
   -7.2963    1.4186    0.0000 C   0  0  0  0  0  0  0  0  0
   -8.1213    1.4186    0.0000 C   0  0  0  0  0  0  0  0  0
   -8.5338    2.1331    0.0000 C   0  0  0  0  0  0  0  0  0
   -8.1213    2.8475    0.0000 C   0  0  0  0  0  0  0  0  0
   -7.2963    2.8475    0.0000 C   0  0  0  0  0  0  0  0  0
   -9.3588    2.1331    0.0000 C   0  0  0  0  0  0  0  0  0
  -10.1838    2.1331    0.0000 C   0  0  0  0  0  0  0  0  0
   -6.7443    0.8055    0.0000 C   0  0  0  0  0  0  0  0  0
   -5.9906    1.1411    0.0000 C   0  0  0  0  0  0  0  0  0
   -5.2761    0.7286    0.0000 C   0  0  0  0  0  0  0  0  0
   -5.2761   -0.0964    0.0000 O   0  0  0  0  0  0  0  0  0
   -4.5617    1.1411    0.0000 N   0  0  0  0  0  0  0  0  0
   -3.8472    0.7286    0.0000 C   0  0  0  0  0  0  0  0  0
   -3.1327    1.1411    0.0000 C   0  0  0  0  0  0  0  0  0
   -2.4182    0.7286    0.0000 C   0  0  0  0  0  0  0  0  0
   -1.7038    1.1411    0.0000 C   0  0  0  0  0  0  0  0  0
   -0.9893    0.7286    0.0000 N   0  0  0  0  0  0  0  0  0
   -0.2748    1.1411    0.0000 C   0  0  0  0  0  0  0  0  0
    0.4396    0.7286    0.0000 C   0  0  0  0  0  0  0  0  0
    0.4396   -0.0964    0.0000 N   0  0  0  0  0  0  0  0  0
   -0.2748   -0.5089    0.0000 C   0  0  0  0  0  0  0  0  0
   -0.9893   -0.0964    0.0000 C   0  0  0  0  0  0  0  0  0
    1.1541   -0.5089    0.0000 C   0  0  0  0  0  0  0  0  0
    1.8686   -0.0964    0.0000 C   0  0  0  0  0  0  0  0  0
    2.5831   -0.5089    0.0000 C   0  0  0  0  0  0  0  0  0
    2.5831   -1.3339    0.0000 C   0  0  0  0  0  0  0  0  0
    1.8686   -1.7464    0.0000 C   0  0  0  0  0  0  0  0  0
    1.1541   -1.3339    0.0000 C   0  0  0  0  0  0  0  0  0
    0.4396   -1.7464    0.0000 O   0  0  0  0  0  0  0  0  0
    0.4396   -2.5714    0.0000 C   0  0  0  0  0  0  0  0  0
  1  2  4  0  0  0  0
  1 11  4  0  0  0  0
  2  3  4  0  0  0  0
  2  7  4  0  0  0  0
  3  4  4  0  0  0  0
  3 10  4  0  0  0  0
  4  5  4  0  0  0  0
  5  6  4  0  0  0  0
  5  8  1  0  0  0  0
  6  7  4  0  0  0  0
  8  9  3  0  0  0  0
 10 11  4  0  0  0  0
 11 12  1  0  0  0  0
 12 13  2  0  0  0  0
 12 14  1  0  0  0  0
 14 15  1  0  0  0  0
 15 16  1  0  0  0  0
 16 17  1  0  0  0  0
 17 18  1  0  0  0  0
 18 19  1  0  0  0  0
 19 20  1  0  0  0  0
 19 24  1  0  0  0  0
 20 21  1  0  0  0  0
 21 22  1  0  0  0  0
 22 23  1  0  0  0  0
 22 25  1  0  0  0  0
 23 24  1  0  0  0  0
 25 26  4  0  0  0  0
 25 30  4  0  0  0  0
 26 27  4  0  0  0  0
 27 28  4  0  0  0  0
 28 29  4  0  0  0  0
 29 30  4  0  0  0  0
 30 31  1  0  0  0  0
 31 32  1  0  0  0  0
M  END
>  <Name_Molregno>
366947

>  <DOPAMINE D2>
6.39

>  <DOPAMINE D3>
9.41

>  <DOPAMINE D4>
7.51

$$$$
366948
  Marvin  02231216192D 0   1.00000     0.00000     0

 24 27  0  0  0  0  0  0  0  0999 V2000
    3.8822   -4.6324    0.0000 I   0  0  0  0  0  0  0  0  0
    3.8822   -3.8074    0.0000 C   0  0  0  0  0  0  0  0  0
    3.1677   -3.3949    0.0000 N   0  0  0  0  0  0  0  0  0
    2.3831   -3.6498    0.0000 N   0  0  0  0  0  0  0  0  0
    1.8982   -2.9824    0.0000 C   0  0  0  0  0  0  0  0  0
    2.3831   -2.3149    0.0000 C   0  0  0  0  0  0  0  0  0
    3.1677   -2.5699    0.0000 C   0  0  0  0  0  0  0  0  0
    3.8822   -2.1574    0.0000 C   0  0  0  0  0  0  0  0  0
    4.5967   -2.5699    0.0000 C   0  0  0  0  0  0  0  0  0
    4.5967   -3.3949    0.0000 C   0  0  0  0  0  0  0  0  0
    2.1282   -1.5303    0.0000 C   0  0  0  0  0  0  0  0  0
    2.6802   -0.9172    0.0000 N   0  0  0  0  0  0  0  0  0
    2.4253   -0.1326    0.0000 C   0  0  0  0  0  0  0  0  0
    2.9773    0.4805    0.0000 C   0  0  0  0  0  0  0  0  0
    3.7843    0.3090    0.0000 N   0  0  0  0  0  0  0  0  0
    4.0392   -0.4757    0.0000 C   0  0  0  0  0  0  0  0  0
    3.4872   -1.0888    0.0000 C   0  0  0  0  0  0  0  0  0
    4.3363    0.9221    0.0000 C   0  0  0  0  0  0  0  0  0
    4.0814    1.7067    0.0000 C   0  0  0  0  0  0  0  0  0
    4.6334    2.3198    0.0000 C   0  0  0  0  0  0  0  0  0
    5.4404    2.1482    0.0000 C   0  0  0  0  0  0  0  0  0
    5.9924    2.7613    0.0000 Cl  0  0  0  0  0  0  0  0  0
    5.6953    1.3636    0.0000 C   0  0  0  0  0  0  0  0  0
    5.1433    0.7505    0.0000 C   0  0  0  0  0  0  0  0  0
  1  2  1  0  0  0  0
  2  3  4  0  0  0  0
  2 10  4  0  0  0  0
  3  4  4  0  0  0  0
  3  7  4  0  0  0  0
  4  5  4  0  0  0  0
  5  6  4  0  0  0  0
  6  7  4  0  0  0  0
  6 11  1  0  0  0  0
  7  8  4  0  0  0  0
  8  9  4  0  0  0  0
  9 10  4  0  0  0  0
 11 12  1  0  0  0  0
 12 13  1  0  0  0  0
 12 17  1  0  0  0  0
 13 14  1  0  0  0  0
 14 15  1  0  0  0  0
 15 16  1  0  0  0  0
 15 18  1  0  0  0  0
 16 17  1  0  0  0  0
 18 19  4  0  0  0  0
 18 24  4  0  0  0  0
 19 20  4  0  0  0  0
 20 21  4  0  0  0  0
 21 22  1  0  0  0  0
 21 23  4  0  0  0  0
 23 24  4  0  0  0  0
M  END
>  <Name_Molregno>
366948

>  <DOPAMINE D2>
5.12

>  <DOPAMINE D3>
5.57

>  <DOPAMINE D4>
8.3

$$$$
366953
  Marvin  02231216192D 0   1.00000     0.00000     0

 32 35  0  0  0  0  0  0  0  0999 V2000
   -6.0768    1.9615    0.0000 S   0  0  0  0  0  0  0  0  0
   -6.8838    2.1331    0.0000 C   0  0  0  0  0  0  0  0  0
   -7.2963    1.4186    0.0000 C   0  0  0  0  0  0  0  0  0
   -8.1213    1.4186    0.0000 C   0  0  0  0  0  0  0  0  0
   -8.5338    2.1331    0.0000 C   0  0  0  0  0  0  0  0  0
   -8.1213    2.8475    0.0000 C   0  0  0  0  0  0  0  0  0
   -7.2963    2.8475    0.0000 C   0  0  0  0  0  0  0  0  0
   -9.3588    2.1331    0.0000 C   0  0  0  0  0  0  0  0  0
  -10.1838    2.1331    0.0000 N   0  0  0  0  0  0  0  0  0
   -6.7443    0.8055    0.0000 C   0  0  0  0  0  0  0  0  0
   -5.9906    1.1411    0.0000 C   0  0  0  0  0  0  0  0  0
   -5.2761    0.7286    0.0000 C   0  0  0  0  0  0  0  0  0
   -5.2761   -0.0964    0.0000 O   0  0  0  0  0  0  0  0  0
   -4.5617    1.1411    0.0000 N   0  0  0  0  0  0  0  0  0
   -3.8472    0.7286    0.0000 C   0  0  0  0  0  0  0  0  0
   -3.1327    1.1411    0.0000 C   0  0  0  0  0  0  0  0  0
   -2.4182    0.7286    0.0000 C   0  0  0  0  0  0  0  0  0
   -1.7038    1.1411    0.0000 C   0  0  0  0  0  0  0  0  0
   -0.9893    0.7286    0.0000 N   0  0  0  0  0  0  0  0  0
   -0.2748    1.1411    0.0000 C   0  0  0  0  0  0  0  0  0
    0.4396    0.7286    0.0000 C   0  0  0  0  0  0  0  0  0
    0.4396   -0.0964    0.0000 N   0  0  0  0  0  0  0  0  0
   -0.2748   -0.5089    0.0000 C   0  0  0  0  0  0  0  0  0
   -0.9893   -0.0964    0.0000 C   0  0  0  0  0  0  0  0  0
    1.1541   -0.5089    0.0000 C   0  0  0  0  0  0  0  0  0
    1.8686   -0.0964    0.0000 C   0  0  0  0  0  0  0  0  0
    2.5831   -0.5089    0.0000 C   0  0  0  0  0  0  0  0  0
    2.5831   -1.3339    0.0000 C   0  0  0  0  0  0  0  0  0
    1.8686   -1.7464    0.0000 C   0  0  0  0  0  0  0  0  0
    1.1541   -1.3339    0.0000 C   0  0  0  0  0  0  0  0  0
    0.4396   -1.7464    0.0000 O   0  0  0  0  0  0  0  0  0
    0.4396   -2.5714    0.0000 C   0  0  0  0  0  0  0  0  0
  1  2  4  0  0  0  0
  1 11  4  0  0  0  0
  2  3  4  0  0  0  0
  2  7  4  0  0  0  0
  3  4  4  0  0  0  0
  3 10  4  0  0  0  0
  4  5  4  0  0  0  0
  5  6  4  0  0  0  0
  5  8  1  0  0  0  0
  6  7  4  0  0  0  0
  8  9  3  0  0  0  0
 10 11  4  0  0  0  0
 11 12  1  0  0  0  0
 12 13  2  0  0  0  0
 12 14  1  0  0  0  0
 14 15  1  0  0  0  0
 15 16  1  0  0  0  0
 16 17  1  0  0  0  0
 17 18  1  0  0  0  0
 18 19  1  0  0  0  0
 19 20  1  0  0  0  0
 19 24  1  0  0  0  0
 20 21  1  0  0  0  0
 21 22  1  0  0  0  0
 22 23  1  0  0  0  0
 22 25  1  0  0  0  0
 23 24  1  0  0  0  0
 25 26  4  0  0  0  0
 25 30  4  0  0  0  0
 26 27  4  0  0  0  0
 27 28  4  0  0  0  0
 28 29  4  0  0  0  0
 29 30  4  0  0  0  0
 30 31  1  0  0  0  0
 31 32  1  0  0  0  0
M  END
>  <Name_Molregno>
366953

>  <DOPAMINE D2>
7.17

>  <DOPAMINE D3>
9.34

>  <DOPAMINE D4>
7.35

$$$$
366954
  Marvin  02231216192D 0   1.00000     0.00000     0

 32 35  0  0  0  0  0  0  0  0999 V2000
    0.0151    0.2061    0.0000 S   0  0  0  0  0  0  0  0  0
   -0.5369    0.8192    0.0000 C   0  0  0  0  0  0  0  0  0
   -1.3619    0.8192    0.0000 C   0  0  0  0  0  0  0  0  0
   -1.7744    1.5337    0.0000 C   0  0  0  0  0  0  0  0  0
   -1.3619    2.2482    0.0000 C   0  0  0  0  0  0  0  0  0
   -0.5369    2.2482    0.0000 C   0  0  0  0  0  0  0  0  0
   -0.1244    1.5337    0.0000 C   0  0  0  0  0  0  0  0  0
    0.6826    1.3622    0.0000 C   0  0  0  0  0  0  0  0  0
    0.7688    0.5417    0.0000 C   0  0  0  0  0  0  0  0  0
    1.4833    0.1292    0.0000 C   0  0  0  0  0  0  0  0  0
    1.4833   -0.6958    0.0000 O   0  0  0  0  0  0  0  0  0
    2.1977    0.5417    0.0000 N   0  0  0  0  0  0  0  0  0
    2.9122    0.1292    0.0000 C   0  0  0  0  0  0  0  0  0
    3.6267    0.5417    0.0000 C   0  0  0  0  0  0  0  0  0
    4.3412    0.1292    0.0000 C   0  0  0  0  0  0  0  0  0
    5.0556    0.5417    0.0000 C   0  0  0  0  0  0  0  0  0
    5.7701    0.1292    0.0000 N   0  0  0  0  0  0  0  0  0
    6.4846    0.5417    0.0000 C   0  0  0  0  0  0  0  0  0
    7.1990    0.1292    0.0000 C   0  0  0  0  0  0  0  0  0
    7.1990   -0.6958    0.0000 N   0  0  0  0  0  0  0  0  0
    6.4846   -1.1083    0.0000 C   0  0  0  0  0  0  0  0  0
    5.7701   -0.6958    0.0000 C   0  0  0  0  0  0  0  0  0
    7.9135   -1.1083    0.0000 C   0  0  0  0  0  0  0  0  0
    8.6280   -0.6958    0.0000 C   0  0  0  0  0  0  0  0  0
    9.3424   -1.1083    0.0000 C   0  0  0  0  0  0  0  0  0
    9.3424   -1.9333    0.0000 C   0  0  0  0  0  0  0  0  0
    8.6280   -2.3458    0.0000 C   0  0  0  0  0  0  0  0  0
    7.9135   -1.9333    0.0000 C   0  0  0  0  0  0  0  0  0
    7.1990   -2.3458    0.0000 O   0  0  0  0  0  0  0  0  0
    7.1990   -3.1708    0.0000 C   0  0  0  0  0  0  0  0  0
   -2.5994    1.5337    0.0000 C   0  0  0  0  0  0  0  0  0
   -3.4244    1.5337    0.0000 C   0  0  0  0  0  0  0  0  0
  1  2  4  0  0  0  0
  1  9  4  0  0  0  0
  2  3  4  0  0  0  0
  2  7  4  0  0  0  0
  3  4  4  0  0  0  0
  4  5  4  0  0  0  0
  4 31  1  0  0  0  0
  5  6  4  0  0  0  0
  6  7  4  0  0  0  0
  7  8  4  0  0  0  0
  8  9  4  0  0  0  0
  9 10  1  0  0  0  0
 10 11  2  0  0  0  0
 10 12  1  0  0  0  0
 12 13  1  0  0  0  0
 13 14  1  0  0  0  0
 14 15  1  0  0  0  0
 15 16  1  0  0  0  0
 16 17  1  0  0  0  0
 17 18  1  0  0  0  0
 17 22  1  0  0  0  0
 18 19  1  0  0  0  0
 19 20  1  0  0  0  0
 20 21  1  0  0  0  0
 20 23  1  0  0  0  0
 21 22  1  0  0  0  0
 23 24  4  0  0  0  0
 23 28  4  0  0  0  0
 24 25  4  0  0  0  0
 25 26  4  0  0  0  0
 26 27  4  0  0  0  0
 27 28  4  0  0  0  0
 28 29  1  0  0  0  0
 29 30  1  0  0  0  0
 31 32  3  0  0  0  0
M  END
>  <Name_Molregno>
366954

>  <DOPAMINE D2>
6.7

>  <DOPAMINE D3>
9.42

>  <DOPAMINE D4>
6.82

$$$$
366966
  Marvin  02231216192D 0   1.00000     0.00000     0

 31 34  0  0  0  0  0  0  0  0999 V2000
    0.8720    2.5321    0.0000 Br  0  0  0  0  0  0  0  0  0
    1.2845    1.8177    0.0000 C   0  0  0  0  0  0  0  0  0
    2.1095    1.8177    0.0000 C   0  0  0  0  0  0  0  0  0
    2.5220    1.1032    0.0000 C   0  0  0  0  0  0  0  0  0
    3.3290    0.9317    0.0000 C   0  0  0  0  0  0  0  0  0
    3.4152    0.1112    0.0000 C   0  0  0  0  0  0  0  0  0
    2.6615   -0.2244    0.0000 O   0  0  0  0  0  0  0  0  0
    2.1095    0.3887    0.0000 C   0  0  0  0  0  0  0  0  0
    1.2845    0.3887    0.0000 C   0  0  0  0  0  0  0  0  0
    0.8720    1.1032    0.0000 C   0  0  0  0  0  0  0  0  0
    4.1297   -0.3013    0.0000 C   0  0  0  0  0  0  0  0  0
    4.1297   -1.1263    0.0000 O   0  0  0  0  0  0  0  0  0
    4.8441    0.1112    0.0000 N   0  0  0  0  0  0  0  0  0
    5.5586   -0.3013    0.0000 C   0  0  0  0  0  0  0  0  0
    6.2731    0.1112    0.0000 C   0  0  0  0  0  0  0  0  0
    6.9875   -0.3013    0.0000 C   0  0  0  0  0  0  0  0  0
    7.7020    0.1112    0.0000 C   0  0  0  0  0  0  0  0  0
    8.4165   -0.3013    0.0000 N   0  0  0  0  0  0  0  0  0
    9.1310    0.1112    0.0000 C   0  0  0  0  0  0  0  0  0
    9.8454   -0.3013    0.0000 C   0  0  0  0  0  0  0  0  0
    9.8454   -1.1263    0.0000 N   0  0  0  0  0  0  0  0  0
    9.1310   -1.5388    0.0000 C   0  0  0  0  0  0  0  0  0
    8.4165   -1.1263    0.0000 C   0  0  0  0  0  0  0  0  0
   10.5599   -1.5388    0.0000 C   0  0  0  0  0  0  0  0  0
   11.2744   -1.1263    0.0000 C   0  0  0  0  0  0  0  0  0
   11.9888   -1.5388    0.0000 C   0  0  0  0  0  0  0  0  0
   11.9888   -2.3638    0.0000 C   0  0  0  0  0  0  0  0  0
   11.2744   -2.7763    0.0000 C   0  0  0  0  0  0  0  0  0
   10.5599   -2.3638    0.0000 C   0  0  0  0  0  0  0  0  0
    9.8454   -2.7763    0.0000 O   0  0  0  0  0  0  0  0  0
    9.8454   -3.6013    0.0000 C   0  0  0  0  0  0  0  0  0
  1  2  1  0  0  0  0
  2  3  4  0  0  0  0
  2 10  4  0  0  0  0
  3  4  4  0  0  0  0
  4  5  4  0  0  0  0
  4  8  4  0  0  0  0
  5  6  4  0  0  0  0
  6  7  4  0  0  0  0
  6 11  1  0  0  0  0
  7  8  4  0  0  0  0
  8  9  4  0  0  0  0
  9 10  4  0  0  0  0
 11 12  2  0  0  0  0
 11 13  1  0  0  0  0
 13 14  1  0  0  0  0
 14 15  1  0  0  0  0
 15 16  1  0  0  0  0
 16 17  1  0  0  0  0
 17 18  1  0  0  0  0
 18 19  1  0  0  0  0
 18 23  1  0  0  0  0
 19 20  1  0  0  0  0
 20 21  1  0  0  0  0
 21 22  1  0  0  0  0
 21 24  1  0  0  0  0
 22 23  1  0  0  0  0
 24 25  4  0  0  0  0
 24 29  4  0  0  0  0
 25 26  4  0  0  0  0
 26 27  4  0  0  0  0
 27 28  4  0  0  0  0
 28 29  4  0  0  0  0
 29 30  1  0  0  0  0
 30 31  1  0  0  0  0
M  END
>  <Name_Molregno>
366966

>  <DOPAMINE D2>
7.02

>  <DOPAMINE D3>
9.16

>  <DOPAMINE D4>
7.77

$$$$
366967
  Marvin  02231216192D 0   1.00000     0.00000     0

 31 34  0  0  0  0  0  0  0  0999 V2000
    0.8327    2.2710    0.0000 Br  0  0  0  0  0  0  0  0  0
    1.2452    1.5565    0.0000 C   0  0  0  0  0  0  0  0  0
    2.0702    1.5565    0.0000 C   0  0  0  0  0  0  0  0  0
    2.4827    0.8421    0.0000 C   0  0  0  0  0  0  0  0  0
    3.2897    0.6705    0.0000 C   0  0  0  0  0  0  0  0  0
    3.3760   -0.1499    0.0000 C   0  0  0  0  0  0  0  0  0
    2.6223   -0.4855    0.0000 O   0  0  0  0  0  0  0  0  0
    2.0702    0.1276    0.0000 C   0  0  0  0  0  0  0  0  0
    1.2452    0.1276    0.0000 C   0  0  0  0  0  0  0  0  0
    0.8327    0.8421    0.0000 C   0  0  0  0  0  0  0  0  0
    4.0904   -0.5624    0.0000 C   0  0  0  0  0  0  0  0  0
    4.0904   -1.3874    0.0000 O   0  0  0  0  0  0  0  0  0
    4.8049   -0.1499    0.0000 N   0  0  0  0  0  0  0  0  0
    5.5194   -0.5624    0.0000 C   0  0  0  0  0  0  0  0  0
    6.2338   -0.1499    0.0000 C   0  0  0  0  0  0  0  0  0
    6.9483   -0.5624    0.0000 C   0  0  0  0  0  0  0  0  0
    7.6628   -0.1499    0.0000 C   0  0  0  0  0  0  0  0  0
    8.3772   -0.5624    0.0000 N   0  0  0  0  0  0  0  0  0
    9.0917   -0.1499    0.0000 C   0  0  0  0  0  0  0  0  0
    9.8062   -0.5624    0.0000 C   0  0  0  0  0  0  0  0  0
    9.8062   -1.3874    0.0000 N   0  0  0  0  0  0  0  0  0
    9.0917   -1.7999    0.0000 C   0  0  0  0  0  0  0  0  0
    8.3772   -1.3874    0.0000 C   0  0  0  0  0  0  0  0  0
   10.5207   -1.7999    0.0000 C   0  0  0  0  0  0  0  0  0
   11.2351   -1.3874    0.0000 C   0  0  0  0  0  0  0  0  0
   11.9496   -1.7999    0.0000 C   0  0  0  0  0  0  0  0  0
   11.9496   -2.6249    0.0000 C   0  0  0  0  0  0  0  0  0
   11.2351   -3.0374    0.0000 C   0  0  0  0  0  0  0  0  0
   11.2351   -3.8624    0.0000 Cl  0  0  0  0  0  0  0  0  0
   10.5207   -2.6249    0.0000 C   0  0  0  0  0  0  0  0  0
    9.8062   -3.0374    0.0000 Cl  0  0  0  0  0  0  0  0  0
  1  2  1  0  0  0  0
  2  3  4  0  0  0  0
  2 10  4  0  0  0  0
  3  4  4  0  0  0  0
  4  5  4  0  0  0  0
  4  8  4  0  0  0  0
  5  6  4  0  0  0  0
  6  7  4  0  0  0  0
  6 11  1  0  0  0  0
  7  8  4  0  0  0  0
  8  9  4  0  0  0  0
  9 10  4  0  0  0  0
 11 12  2  0  0  0  0
 11 13  1  0  0  0  0
 13 14  1  0  0  0  0
 14 15  1  0  0  0  0
 15 16  1  0  0  0  0
 16 17  1  0  0  0  0
 17 18  1  0  0  0  0
 18 19  1  0  0  0  0
 18 23  1  0  0  0  0
 19 20  1  0  0  0  0
 20 21  1  0  0  0  0
 21 22  1  0  0  0  0
 21 24  1  0  0  0  0
 22 23  1  0  0  0  0
 24 25  4  0  0  0  0
 24 30  4  0  0  0  0
 25 26  4  0  0  0  0
 26 27  4  0  0  0  0
 27 28  4  0  0  0  0
 28 29  1  0  0  0  0
 28 30  4  0  0  0  0
 30 31  1  0  0  0  0
M  END
>  <Name_Molregno>
366967

>  <DOPAMINE D2>
5

>  <DOPAMINE D3>
8.46

>  <DOPAMINE D4>
5.51

$$$$
366973
  Marvin  02231216192D 0   1.00000     0.00000     0

 32 35  0  0  0  0  0  0  0  0999 V2000
   -6.0768    1.9615    0.0000 O   0  0  0  0  0  0  0  0  0
   -6.8838    2.1331    0.0000 C   0  0  0  0  0  0  0  0  0
   -7.2963    1.4186    0.0000 C   0  0  0  0  0  0  0  0  0
   -8.1213    1.4186    0.0000 C   0  0  0  0  0  0  0  0  0
   -8.5338    2.1331    0.0000 C   0  0  0  0  0  0  0  0  0
   -8.1213    2.8475    0.0000 C   0  0  0  0  0  0  0  0  0
   -7.2963    2.8475    0.0000 C   0  0  0  0  0  0  0  0  0
   -9.3588    2.1331    0.0000 C   0  0  0  0  0  0  0  0  0
  -10.1838    2.1331    0.0000 N   0  0  0  0  0  0  0  0  0
   -6.7443    0.8055    0.0000 C   0  0  0  0  0  0  0  0  0
   -5.9906    1.1411    0.0000 C   0  0  0  0  0  0  0  0  0
   -5.2761    0.7286    0.0000 C   0  0  0  0  0  0  0  0  0
   -5.2761   -0.0964    0.0000 O   0  0  0  0  0  0  0  0  0
   -4.5617    1.1411    0.0000 N   0  0  0  0  0  0  0  0  0
   -3.8472    0.7286    0.0000 C   0  0  0  0  0  0  0  0  0
   -3.1327    1.1411    0.0000 C   0  0  0  0  0  0  0  0  0
   -2.4182    0.7286    0.0000 C   0  0  0  0  0  0  0  0  0
   -1.7038    1.1411    0.0000 C   0  0  0  0  0  0  0  0  0
   -0.9893    0.7286    0.0000 N   0  0  0  0  0  0  0  0  0
   -0.2748    1.1411    0.0000 C   0  0  0  0  0  0  0  0  0
    0.4396    0.7286    0.0000 C   0  0  0  0  0  0  0  0  0
    0.4396   -0.0964    0.0000 N   0  0  0  0  0  0  0  0  0
   -0.2748   -0.5089    0.0000 C   0  0  0  0  0  0  0  0  0
   -0.9893   -0.0964    0.0000 C   0  0  0  0  0  0  0  0  0
    1.1541   -0.5089    0.0000 C   0  0  0  0  0  0  0  0  0
    1.8686   -0.0964    0.0000 C   0  0  0  0  0  0  0  0  0
    2.5831   -0.5089    0.0000 C   0  0  0  0  0  0  0  0  0
    2.5831   -1.3339    0.0000 C   0  0  0  0  0  0  0  0  0
    1.8686   -1.7464    0.0000 C   0  0  0  0  0  0  0  0  0
    1.1541   -1.3339    0.0000 C   0  0  0  0  0  0  0  0  0
    0.4396   -1.7464    0.0000 O   0  0  0  0  0  0  0  0  0
    0.4396   -2.5714    0.0000 C   0  0  0  0  0  0  0  0  0
  1  2  4  0  0  0  0
  1 11  4  0  0  0  0
  2  3  4  0  0  0  0
  2  7  4  0  0  0  0
  3  4  4  0  0  0  0
  3 10  4  0  0  0  0
  4  5  4  0  0  0  0
  5  6  4  0  0  0  0
  5  8  1  0  0  0  0
  6  7  4  0  0  0  0
  8  9  3  0  0  0  0
 10 11  4  0  0  0  0
 11 12  1  0  0  0  0
 12 13  2  0  0  0  0
 12 14  1  0  0  0  0
 14 15  1  0  0  0  0
 15 16  1  0  0  0  0
 16 17  1  0  0  0  0
 17 18  1  0  0  0  0
 18 19  1  0  0  0  0
 19 20  1  0  0  0  0
 19 24  1  0  0  0  0
 20 21  1  0  0  0  0
 21 22  1  0  0  0  0
 22 23  1  0  0  0  0
 22 25  1  0  0  0  0
 23 24  1  0  0  0  0
 25 26  4  0  0  0  0
 25 30  4  0  0  0  0
 26 27  4  0  0  0  0
 27 28  4  0  0  0  0
 28 29  4  0  0  0  0
 29 30  4  0  0  0  0
 30 31  1  0  0  0  0
 31 32  1  0  0  0  0
M  END
>  <Name_Molregno>
366973

>  <DOPAMINE D2>
6.89

>  <DOPAMINE D3>
8.37

>  <DOPAMINE D4>
7.24

$$$$
366979
  Marvin  02231216192D 0   1.00000     0.00000     0

 32 35  0  0  0  0  0  0  0  0999 V2000
   -9.6605    0.1014    0.0000 O   0  0  0  0  0  0  0  0  0
  -10.3750   -0.3111    0.0000 C   0  0  0  0  0  0  0  0  0
   -9.6605    0.9264    0.0000 C   0  0  0  0  0  0  0  0  0
  -10.3750    1.3389    0.0000 C   0  0  0  0  0  0  0  0  0
  -10.3750    2.1639    0.0000 C   0  0  0  0  0  0  0  0  0
   -9.6605    2.5764    0.0000 C   0  0  0  0  0  0  0  0  0
   -8.9460    2.1639    0.0000 C   0  0  0  0  0  0  0  0  0
   -8.9460    1.3389    0.0000 C   0  0  0  0  0  0  0  0  0
   -8.2316    0.9264    0.0000 N   0  0  0  0  0  0  0  0  0
   -7.5171    1.3389    0.0000 C   0  0  0  0  0  0  0  0  0
   -6.8026    0.9264    0.0000 C   0  0  0  0  0  0  0  0  0
   -6.8026    0.1014    0.0000 N   0  0  0  0  0  0  0  0  0
   -7.5171   -0.3111    0.0000 C   0  0  0  0  0  0  0  0  0
   -8.2316    0.1014    0.0000 C   0  0  0  0  0  0  0  0  0
   -6.0882   -0.3111    0.0000 C   0  0  0  0  0  0  0  0  0
   -5.3737    0.1014    0.0000 C   0  0  0  0  0  0  0  0  0
   -4.6592   -0.3111    0.0000 C   0  0  0  0  0  0  0  0  0
   -3.9447    0.1014    0.0000 C   0  0  0  0  0  0  0  0  0
   -3.2303   -0.3111    0.0000 N   0  0  0  0  0  0  0  0  0
   -2.5158    0.1014    0.0000 C   0  0  0  0  0  0  0  0  0
   -2.5158    0.9264    0.0000 O   0  0  0  0  0  0  0  0  0
   -1.8013   -0.3111    0.0000 C   0  0  0  0  0  0  0  0  0
   -1.7151   -1.1316    0.0000 N   0  0  0  0  0  0  0  0  0
   -0.9081   -1.3031    0.0000 C   0  0  0  0  0  0  0  0  0
   -0.4956   -0.5886    0.0000 C   0  0  0  0  0  0  0  0  0
    0.3294   -0.5886    0.0000 C   0  0  0  0  0  0  0  0  0
    0.7419   -1.3031    0.0000 C   0  0  0  0  0  0  0  0  0
    0.3294   -2.0176    0.0000 C   0  0  0  0  0  0  0  0  0
   -0.4956   -2.0176    0.0000 C   0  0  0  0  0  0  0  0  0
    1.5669   -1.3031    0.0000 C   0  0  0  0  0  0  0  0  0
    2.3919   -1.3031    0.0000 N   0  0  0  0  0  0  0  0  0
   -1.0477    0.0245    0.0000 C   0  0  0  0  0  0  0  0  0
  1  2  1  0  0  0  0
  1  3  1  0  0  0  0
  3  4  4  0  0  0  0
  3  8  4  0  0  0  0
  4  5  4  0  0  0  0
  5  6  4  0  0  0  0
  6  7  4  0  0  0  0
  7  8  4  0  0  0  0
  8  9  1  0  0  0  0
  9 10  1  0  0  0  0
  9 14  1  0  0  0  0
 10 11  1  0  0  0  0
 11 12  1  0  0  0  0
 12 13  1  0  0  0  0
 12 15  1  0  0  0  0
 13 14  1  0  0  0  0
 15 16  1  0  0  0  0
 16 17  1  0  0  0  0
 17 18  1  0  0  0  0
 18 19  1  0  0  0  0
 19 20  1  0  0  0  0
 20 21  2  0  0  0  0
 20 22  1  0  0  0  0
 22 23  4  0  0  0  0
 22 32  4  0  0  0  0
 23 24  4  0  0  0  0
 24 25  4  0  0  0  0
 24 29  4  0  0  0  0
 25 26  4  0  0  0  0
 25 32  4  0  0  0  0
 26 27  4  0  0  0  0
 27 28  4  0  0  0  0
 27 30  1  0  0  0  0
 28 29  4  0  0  0  0
 30 31  3  0  0  0  0
M  STY  1   1 DAT
M  SAL   1  1  23
M  SDT   1 MRV_IMPLICIT_H                                        
M  SDD   1     0.0000    0.0000    DR    ALL  0       0  
M  SED   1 IMPL_H1
M  END
>  <Name_Molregno>
366979

>  <DOPAMINE D2>
6.85

>  <DOPAMINE D3>
9.24

>  <DOPAMINE D4>
7.62

$$$$
366993
  Marvin  02231216192D 0   1.00000     0.00000     0

 36 39  0  0  0  0  0  0  0  0999 V2000
  -11.0558   -2.3421    0.0000 Br  0  0  0  0  0  0  0  0  0
  -11.5407   -1.6746    0.0000 C   0  0  0  0  0  0  0  0  0
  -12.3612   -1.7609    0.0000 C   0  0  0  0  0  0  0  0  0
  -12.8461   -1.0934    0.0000 C   0  0  0  0  0  0  0  0  0
  -12.5106   -0.3398    0.0000 C   0  0  0  0  0  0  0  0  0
  -11.6901   -0.2535    0.0000 C   0  0  0  0  0  0  0  0  0
  -11.2052   -0.9210    0.0000 C   0  0  0  0  0  0  0  0  0
  -10.3847   -0.8347    0.0000 C   0  0  0  0  0  0  0  0  0
  -10.0491   -0.0811    0.0000 N   0  0  0  0  0  0  0  0  0
  -10.4616    0.6334    0.0000 N   0  0  0  0  0  0  0  0  0
   -9.9096    1.2465    0.0000 N   0  0  0  0  0  0  0  0  0
   -9.1559    0.9110    0.0000 C   0  0  0  0  0  0  0  0  0
   -8.4414    1.3235    0.0000 C   0  0  0  0  0  0  0  0  0
   -8.4414    2.1485    0.0000 O   0  0  0  0  0  0  0  0  0
   -7.7270    0.9110    0.0000 N   0  0  0  0  0  0  0  0  0
   -7.0125    1.3235    0.0000 C   0  0  0  0  0  0  0  0  0
   -6.2980    0.9110    0.0000 C   0  0  0  0  0  0  0  0  0
   -5.5836    1.3235    0.0000 C   0  0  0  0  0  0  0  0  0
   -4.8691    0.9110    0.0000 C   0  0  0  0  0  0  0  0  0
   -4.1546    1.3235    0.0000 C   0  0  0  0  0  0  0  0  0
   -3.4402    0.9110    0.0000 N   0  0  0  0  0  0  0  0  0
   -2.7257    1.3235    0.0000 C   0  0  0  0  0  0  0  0  0
   -2.0112    0.9110    0.0000 C   0  0  0  0  0  0  0  0  0
   -2.0112    0.0860    0.0000 N   0  0  0  0  0  0  0  0  0
   -2.7257   -0.3265    0.0000 C   0  0  0  0  0  0  0  0  0
   -3.4402    0.0860    0.0000 C   0  0  0  0  0  0  0  0  0
   -1.2967   -0.3265    0.0000 C   0  0  0  0  0  0  0  0  0
   -0.5823    0.0860    0.0000 C   0  0  0  0  0  0  0  0  0
    0.1322   -0.3265    0.0000 C   0  0  0  0  0  0  0  0  0
    0.1322   -1.1515    0.0000 C   0  0  0  0  0  0  0  0  0
   -0.5823   -1.5640    0.0000 C   0  0  0  0  0  0  0  0  0
   -1.2967   -1.1515    0.0000 C   0  0  0  0  0  0  0  0  0
   -2.0112   -1.5640    0.0000 O   0  0  0  0  0  0  0  0  0
   -2.0112   -2.3890    0.0000 C   0  0  0  0  0  0  0  0  0
   -9.2422    0.0905    0.0000 C   0  0  0  0  0  0  0  0  0
   -8.6291   -0.4616    0.0000 C   0  0  0  0  0  0  0  0  0
  1  2  1  0  0  0  0
  2  3  4  0  0  0  0
  2  7  4  0  0  0  0
  3  4  4  0  0  0  0
  4  5  4  0  0  0  0
  5  6  4  0  0  0  0
  6  7  4  0  0  0  0
  7  8  1  0  0  0  0
  8  9  1  0  0  0  0
  9 10  4  0  0  0  0
  9 35  4  0  0  0  0
 10 11  4  0  0  0  0
 11 12  4  0  0  0  0
 12 13  1  0  0  0  0
 12 35  4  0  0  0  0
 13 14  2  0  0  0  0
 13 15  1  0  0  0  0
 15 16  1  0  0  0  0
 16 17  1  0  0  0  0
 17 18  1  0  0  0  0
 18 19  1  0  0  0  0
 19 20  1  0  0  0  0
 20 21  1  0  0  0  0
 21 22  1  0  0  0  0
 21 26  1  0  0  0  0
 22 23  1  0  0  0  0
 23 24  1  0  0  0  0
 24 25  1  0  0  0  0
 24 27  1  0  0  0  0
 25 26  1  0  0  0  0
 27 28  4  0  0  0  0
 27 32  4  0  0  0  0
 28 29  4  0  0  0  0
 29 30  4  0  0  0  0
 30 31  4  0  0  0  0
 31 32  4  0  0  0  0
 32 33  1  0  0  0  0
 33 34  1  0  0  0  0
 35 36  1  0  0  0  0
M  END
>  <Name_Molregno>
366993

>  <DOPAMINE D2>
8.31

>  <DOPAMINE D3>
7.82

>  <DOPAMINE D4>
7.38

$$$$
366994
  Marvin  02231216192D 0   1.00000     0.00000     0

 37 40  0  0  0  0  0  0  0  0999 V2000
  -11.7688    0.9429    0.0000 Br  0  0  0  0  0  0  0  0  0
  -11.4332    1.6966    0.0000 C   0  0  0  0  0  0  0  0  0
  -11.9181    2.3640    0.0000 C   0  0  0  0  0  0  0  0  0
  -11.5826    3.1177    0.0000 C   0  0  0  0  0  0  0  0  0
  -10.7621    3.2039    0.0000 C   0  0  0  0  0  0  0  0  0
  -10.2772    2.5365    0.0000 C   0  0  0  0  0  0  0  0  0
  -10.6127    1.7828    0.0000 C   0  0  0  0  0  0  0  0  0
  -10.1278    1.1154    0.0000 C   0  0  0  0  0  0  0  0  0
   -9.3073    1.2016    0.0000 N   0  0  0  0  0  0  0  0  0
   -8.8948    1.9161    0.0000 N   0  0  0  0  0  0  0  0  0
   -8.0879    1.7446    0.0000 N   0  0  0  0  0  0  0  0  0
   -8.0016    0.9241    0.0000 C   0  0  0  0  0  0  0  0  0
   -7.2872    0.5116    0.0000 C   0  0  0  0  0  0  0  0  0
   -7.2872   -0.3134    0.0000 O   0  0  0  0  0  0  0  0  0
   -6.5727    0.9241    0.0000 N   0  0  0  0  0  0  0  0  0
   -5.8582    0.5116    0.0000 C   0  0  0  0  0  0  0  0  0
   -5.1438    0.9241    0.0000 C   0  0  0  0  0  0  0  0  0
   -4.4293    0.5116    0.0000 C   0  0  0  0  0  0  0  0  0
   -3.7148    0.9241    0.0000 C   0  0  0  0  0  0  0  0  0
   -3.0003    0.5116    0.0000 N   0  0  0  0  0  0  0  0  0
   -2.2859    0.9241    0.0000 C   0  0  0  0  0  0  0  0  0
   -1.5714    0.5116    0.0000 C   0  0  0  0  0  0  0  0  0
   -1.5714   -0.3134    0.0000 N   0  0  0  0  0  0  0  0  0
   -2.2859   -0.7259    0.0000 C   0  0  0  0  0  0  0  0  0
   -3.0003   -0.3134    0.0000 C   0  0  0  0  0  0  0  0  0
   -0.8569   -0.7259    0.0000 C   0  0  0  0  0  0  0  0  0
   -0.1425   -0.3134    0.0000 C   0  0  0  0  0  0  0  0  0
    0.5720   -0.7259    0.0000 C   0  0  0  0  0  0  0  0  0
    0.5720   -1.5509    0.0000 C   0  0  0  0  0  0  0  0  0
   -0.1425   -1.9634    0.0000 C   0  0  0  0  0  0  0  0  0
   -0.8569   -1.5509    0.0000 C   0  0  0  0  0  0  0  0  0
   -1.5714   -1.9634    0.0000 O   0  0  0  0  0  0  0  0  0
   -1.5714   -2.7884    0.0000 C   0  0  0  0  0  0  0  0  0
   -8.7553    0.5885    0.0000 C   0  0  0  0  0  0  0  0  0
   -8.9268   -0.2185    0.0000 C   0  0  0  0  0  0  0  0  0
   -8.3137   -0.7705    0.0000 C   0  0  0  0  0  0  0  0  0
   -8.4853   -1.5775    0.0000 C   0  0  0  0  0  0  0  0  0
  1  2  1  0  0  0  0
  2  3  4  0  0  0  0
  2  7  4  0  0  0  0
  3  4  4  0  0  0  0
  4  5  4  0  0  0  0
  5  6  4  0  0  0  0
  6  7  4  0  0  0  0
  7  8  1  0  0  0  0
  8  9  1  0  0  0  0
  9 10  4  0  0  0  0
  9 34  4  0  0  0  0
 10 11  4  0  0  0  0
 11 12  4  0  0  0  0
 12 13  1  0  0  0  0
 12 34  4  0  0  0  0
 13 14  2  0  0  0  0
 13 15  1  0  0  0  0
 15 16  1  0  0  0  0
 16 17  1  0  0  0  0
 17 18  1  0  0  0  0
 18 19  1  0  0  0  0
 19 20  1  0  0  0  0
 20 21  1  0  0  0  0
 20 25  1  0  0  0  0
 21 22  1  0  0  0  0
 22 23  1  0  0  0  0
 23 24  1  0  0  0  0
 23 26  1  0  0  0  0
 24 25  1  0  0  0  0
 26 27  4  0  0  0  0
 26 31  4  0  0  0  0
 27 28  4  0  0  0  0
 28 29  4  0  0  0  0
 29 30  4  0  0  0  0
 30 31  4  0  0  0  0
 31 32  1  0  0  0  0
 32 33  1  0  0  0  0
 34 35  1  0  0  0  0
 35 36  1  0  0  0  0
 36 37  1  0  0  0  0
M  END
>  <Name_Molregno>
366994

>  <DOPAMINE D2>
7.66

>  <DOPAMINE D3>
8.46

>  <DOPAMINE D4>
7.12

$$$$
366999
  Marvin  02231216192D 0   1.00000     0.00000     0

 24 27  0  0  0  0  0  0  0  0999 V2000
    1.0936   -2.1604    0.0000 N   0  0  0  0  0  0  0  0  0
    0.2686   -2.1604    0.0000 N   0  0  0  0  0  0  0  0  0
    0.0136   -1.3757    0.0000 C   0  0  0  0  0  0  0  0  0
    0.6811   -0.8908    0.0000 C   0  0  0  0  0  0  0  0  0
    1.3485   -1.3757    0.0000 C   0  0  0  0  0  0  0  0  0
    0.6811   -0.0658    0.0000 C   0  0  0  0  0  0  0  0  0
    1.3955    0.3467    0.0000 N   0  0  0  0  0  0  0  0  0
    1.3955    1.1717    0.0000 C   0  0  0  0  0  0  0  0  0
    2.1100    1.5842    0.0000 C   0  0  0  0  0  0  0  0  0
    2.8245    1.1717    0.0000 C   0  0  0  0  0  0  0  0  0
    2.8245    0.3467    0.0000 C   0  0  0  0  0  0  0  0  0
    2.1100   -0.0658    0.0000 C   0  0  0  0  0  0  0  0  0
    3.5389    1.5842    0.0000 C   0  0  0  0  0  0  0  0  0
    3.5389    2.4092    0.0000 C   0  0  0  0  0  0  0  0  0
    4.2534    2.8217    0.0000 C   0  0  0  0  0  0  0  0  0
    4.9679    2.4092    0.0000 C   0  0  0  0  0  0  0  0  0
    4.9679    1.5842    0.0000 C   0  0  0  0  0  0  0  0  0
    4.2534    1.1717    0.0000 C   0  0  0  0  0  0  0  0  0
   -0.2164   -2.8278    0.0000 C   0  0  0  0  0  0  0  0  0
    0.1192   -3.5815    0.0000 C   0  0  0  0  0  0  0  0  0
   -0.3657   -4.2489    0.0000 C   0  0  0  0  0  0  0  0  0
   -1.1862   -4.1627    0.0000 C   0  0  0  0  0  0  0  0  0
   -1.5218   -3.4090    0.0000 C   0  0  0  0  0  0  0  0  0
   -1.0368   -2.7416    0.0000 C   0  0  0  0  0  0  0  0  0
  1  2  4  0  0  0  0
  1  5  4  0  0  0  0
  2  3  4  0  0  0  0
  2 19  1  0  0  0  0
  3  4  4  0  0  0  0
  4  5  4  0  0  0  0
  4  6  1  0  0  0  0
  6  7  1  0  0  0  0
  7  8  1  0  0  0  0
  7 12  1  0  0  0  0
  8  9  1  0  0  0  0
  9 10  1  0  0  0  0
 10 11  1  0  0  0  0
 10 13  1  0  0  0  0
 11 12  1  0  0  0  0
 13 14  4  0  0  0  0
 13 18  4  0  0  0  0
 14 15  4  0  0  0  0
 15 16  4  0  0  0  0
 16 17  4  0  0  0  0
 17 18  4  0  0  0  0
 19 20  4  0  0  0  0
 19 24  4  0  0  0  0
 20 21  4  0  0  0  0
 21 22  4  0  0  0  0
 22 23  4  0  0  0  0
 23 24  4  0  0  0  0
M  END
>  <Name_Molregno>
366999

>  <DOPAMINE D2>
7.42

>  <DOPAMINE D3>
7.48

>  <DOPAMINE D4>
9.23

$$$$
367004
  Marvin  02231216192D 0   1.00000     0.00000     0

 24 27  0  0  0  0  0  0  0  0999 V2000
    0.6013   -1.0708    0.0000 N   0  0  0  0  0  0  0  0  0
    0.3463   -1.8554    0.0000 N   0  0  0  0  0  0  0  0  0
   -0.4787   -1.8554    0.0000 N   0  0  0  0  0  0  0  0  0
   -0.7336   -1.0708    0.0000 C   0  0  0  0  0  0  0  0  0
   -0.0662   -0.5859    0.0000 C   0  0  0  0  0  0  0  0  0
   -0.0662    0.2391    0.0000 C   0  0  0  0  0  0  0  0  0
    0.6483    0.6516    0.0000 N   0  0  0  0  0  0  0  0  0
    0.6483    1.4766    0.0000 C   0  0  0  0  0  0  0  0  0
    1.3628    1.8891    0.0000 C   0  0  0  0  0  0  0  0  0
    2.0772    1.4766    0.0000 C   0  0  0  0  0  0  0  0  0
    2.0772    0.6516    0.0000 C   0  0  0  0  0  0  0  0  0
    1.3628    0.2391    0.0000 C   0  0  0  0  0  0  0  0  0
    2.7917    1.8891    0.0000 C   0  0  0  0  0  0  0  0  0
    2.7917    2.7141    0.0000 C   0  0  0  0  0  0  0  0  0
    3.5062    3.1266    0.0000 C   0  0  0  0  0  0  0  0  0
    4.2206    2.7141    0.0000 C   0  0  0  0  0  0  0  0  0
    4.2206    1.8891    0.0000 C   0  0  0  0  0  0  0  0  0
    3.5062    1.4766    0.0000 C   0  0  0  0  0  0  0  0  0
   -0.9636   -2.5228    0.0000 C   0  0  0  0  0  0  0  0  0
   -0.6281   -3.2765    0.0000 C   0  0  0  0  0  0  0  0  0
   -1.1130   -3.9440    0.0000 C   0  0  0  0  0  0  0  0  0
   -1.9335   -3.8577    0.0000 C   0  0  0  0  0  0  0  0  0
   -2.2690   -3.1040    0.0000 C   0  0  0  0  0  0  0  0  0
   -1.7841   -2.4366    0.0000 C   0  0  0  0  0  0  0  0  0
  1  2  4  0  0  0  0
  1  5  4  0  0  0  0
  2  3  4  0  0  0  0
  3  4  4  0  0  0  0
  3 19  1  0  0  0  0
  4  5  4  0  0  0  0
  5  6  1  0  0  0  0
  6  7  1  0  0  0  0
  7  8  1  0  0  0  0
  7 12  1  0  0  0  0
  8  9  1  0  0  0  0
  9 10  1  0  0  0  0
 10 11  1  0  0  0  0
 10 13  1  0  0  0  0
 11 12  1  0  0  0  0
 13 14  4  0  0  0  0
 13 18  4  0  0  0  0
 14 15  4  0  0  0  0
 15 16  4  0  0  0  0
 16 17  4  0  0  0  0
 17 18  4  0  0  0  0
 19 20  4  0  0  0  0
 19 24  4  0  0  0  0
 20 21  4  0  0  0  0
 21 22  4  0  0  0  0
 22 23  4  0  0  0  0
 23 24  4  0  0  0  0
M  END
>  <Name_Molregno>
367004

>  <DOPAMINE D2>
6.66

>  <DOPAMINE D3>
7.03

>  <DOPAMINE D4>
8.49

$$$$
367031
  Marvin  02231216192D 0   1.00000     0.00000     0

 34 37  0  0  0  0  0  0  0  0999 V2000
   -0.1360    0.0162    0.0000 Cl  0  0  0  0  0  0  0  0  0
   -0.1360   -0.8088    0.0000 C   0  0  0  0  0  0  0  0  0
    0.5785   -1.2213    0.0000 C   0  0  0  0  0  0  0  0  0
    1.2930   -0.8088    0.0000 N   0  0  0  0  0  0  0  0  0
    1.2930    0.0162    0.0000 C   0  0  0  0  0  0  0  0  0
    2.0074    0.4287    0.0000 C   0  0  0  0  0  0  0  0  0
    2.7219    0.0162    0.0000 N   0  0  0  0  0  0  0  0  0
    2.7219   -0.8088    0.0000 C   0  0  0  0  0  0  0  0  0
    2.0074   -1.2213    0.0000 C   0  0  0  0  0  0  0  0  0
    3.4364    0.4287    0.0000 C   0  0  0  0  0  0  0  0  0
    4.1508    0.0162    0.0000 C   0  0  0  0  0  0  0  0  0
    4.8653    0.4287    0.0000 C   0  0  0  0  0  0  0  0  0
    5.5798    0.0162    0.0000 C   0  0  0  0  0  0  0  0  0
    6.2943    0.4287    0.0000 N   0  0  0  0  0  0  0  0  0
    7.0087    0.0162    0.0000 C   0  0  0  0  0  0  0  0  0
    7.0087   -0.8088    0.0000 O   0  0  0  0  0  0  0  0  0
    7.7232    0.4287    0.0000 C   0  0  0  0  0  0  0  0  0
    7.8094    1.2492    0.0000 N   0  0  0  0  0  0  0  0  0
    8.6164    1.4207    0.0000 N   0  0  0  0  0  0  0  0  0
    9.0289    0.7062    0.0000 N   0  0  0  0  0  0  0  0  0
    9.8494    0.6200    0.0000 C   0  0  0  0  0  0  0  0  0
   10.3343    1.2874    0.0000 C   0  0  0  0  0  0  0  0  0
    9.9988    2.0411    0.0000 C   0  0  0  0  0  0  0  0  0
   10.4837    2.7086    0.0000 C   0  0  0  0  0  0  0  0  0
   11.3042    2.6223    0.0000 C   0  0  0  0  0  0  0  0  0
   11.6397    1.8686    0.0000 C   0  0  0  0  0  0  0  0  0
   11.1548    1.2012    0.0000 C   0  0  0  0  0  0  0  0  0
    8.4769    0.0931    0.0000 C   0  0  0  0  0  0  0  0  0
    8.6484   -0.7138    0.0000 C   0  0  0  0  0  0  0  0  0
    0.5785   -2.0463    0.0000 C   0  0  0  0  0  0  0  0  0
   -0.1360   -2.4588    0.0000 C   0  0  0  0  0  0  0  0  0
   -0.8505   -2.0463    0.0000 C   0  0  0  0  0  0  0  0  0
   -0.8505   -1.2213    0.0000 C   0  0  0  0  0  0  0  0  0
   -1.5649   -0.8088    0.0000 Cl  0  0  0  0  0  0  0  0  0
  1  2  1  0  0  0  0
  2  3  4  0  0  0  0
  2 33  4  0  0  0  0
  3  4  1  0  0  0  0
  3 30  4  0  0  0  0
  4  5  1  0  0  0  0
  4  9  1  0  0  0  0
  5  6  1  0  0  0  0
  6  7  1  0  0  0  0
  7  8  1  0  0  0  0
  7 10  1  0  0  0  0
  8  9  1  0  0  0  0
 10 11  1  0  0  0  0
 11 12  1  0  0  0  0
 12 13  1  0  0  0  0
 13 14  1  0  0  0  0
 14 15  1  0  0  0  0
 15 16  2  0  0  0  0
 15 17  1  0  0  0  0
 17 18  4  0  0  0  0
 17 28  4  0  0  0  0
 18 19  4  0  0  0  0
 19 20  4  0  0  0  0
 20 21  1  0  0  0  0
 20 28  4  0  0  0  0
 21 22  1  0  0  0  0
 22 23  4  0  0  0  0
 22 27  4  0  0  0  0
 23 24  4  0  0  0  0
 24 25  4  0  0  0  0
 25 26  4  0  0  0  0
 26 27  4  0  0  0  0
 28 29  1  0  0  0  0
 30 31  4  0  0  0  0
 31 32  4  0  0  0  0
 32 33  4  0  0  0  0
 33 34  1  0  0  0  0
M  END
>  <Name_Molregno>
367031

>  <DOPAMINE D2>
7.41

>  <DOPAMINE D3>
8.37

>  <DOPAMINE D4>
6.55

$$$$
367033
  Marvin  02231216192D 0   1.00000     0.00000     0

 38 41  0  0  0  0  0  0  0  0999 V2000
  -10.8228   -1.9571    0.0000 Br  0  0  0  0  0  0  0  0  0
  -11.3077   -1.2897    0.0000 C   0  0  0  0  0  0  0  0  0
  -12.1282   -1.3759    0.0000 C   0  0  0  0  0  0  0  0  0
  -12.6131   -0.7085    0.0000 C   0  0  0  0  0  0  0  0  0
  -12.2775    0.0452    0.0000 C   0  0  0  0  0  0  0  0  0
  -11.4571    0.1315    0.0000 C   0  0  0  0  0  0  0  0  0
  -10.9721   -0.5360    0.0000 C   0  0  0  0  0  0  0  0  0
  -10.1517   -0.4497    0.0000 C   0  0  0  0  0  0  0  0  0
   -9.8161    0.3039    0.0000 N   0  0  0  0  0  0  0  0  0
  -10.2286    1.0184    0.0000 N   0  0  0  0  0  0  0  0  0
   -9.6766    1.6315    0.0000 N   0  0  0  0  0  0  0  0  0
   -8.9229    1.2959    0.0000 C   0  0  0  0  0  0  0  0  0
   -8.2084    1.7084    0.0000 C   0  0  0  0  0  0  0  0  0
   -8.2084    2.5334    0.0000 O   0  0  0  0  0  0  0  0  0
   -7.4939    1.2959    0.0000 N   0  0  0  0  0  0  0  0  0
   -6.7795    1.7084    0.0000 C   0  0  0  0  0  0  0  0  0
   -6.0650    1.2959    0.0000 C   0  0  0  0  0  0  0  0  0
   -5.3505    1.7084    0.0000 C   0  0  0  0  0  0  0  0  0
   -4.6361    1.2959    0.0000 C   0  0  0  0  0  0  0  0  0
   -3.9216    1.7084    0.0000 C   0  0  0  0  0  0  0  0  0
   -3.2071    1.2959    0.0000 N   0  0  0  0  0  0  0  0  0
   -2.4927    1.7084    0.0000 C   0  0  0  0  0  0  0  0  0
   -1.7782    1.2959    0.0000 C   0  0  0  0  0  0  0  0  0
   -1.7782    0.4709    0.0000 N   0  0  0  0  0  0  0  0  0
   -2.4927    0.0584    0.0000 C   0  0  0  0  0  0  0  0  0
   -3.2071    0.4709    0.0000 C   0  0  0  0  0  0  0  0  0
   -1.0637    0.0584    0.0000 C   0  0  0  0  0  0  0  0  0
   -0.3492    0.4709    0.0000 C   0  0  0  0  0  0  0  0  0
    0.3652    0.0584    0.0000 C   0  0  0  0  0  0  0  0  0
    0.3652   -0.7666    0.0000 C   0  0  0  0  0  0  0  0  0
   -0.3492   -1.1791    0.0000 C   0  0  0  0  0  0  0  0  0
   -1.0637   -0.7666    0.0000 C   0  0  0  0  0  0  0  0  0
   -1.7782   -1.1791    0.0000 O   0  0  0  0  0  0  0  0  0
   -1.7782   -2.0041    0.0000 C   0  0  0  0  0  0  0  0  0
   -9.0091    0.4755    0.0000 C   0  0  0  0  0  0  0  0  0
   -8.3960   -0.0766    0.0000 C   0  0  0  0  0  0  0  0  0
   -7.6114    0.1784    0.0000 C   0  0  0  0  0  0  0  0  0
   -6.9983   -0.3737    0.0000 C   0  0  0  0  0  0  0  0  0
  1  2  1  0  0  0  0
  2  3  4  0  0  0  0
  2  7  4  0  0  0  0
  3  4  4  0  0  0  0
  4  5  4  0  0  0  0
  5  6  4  0  0  0  0
  6  7  4  0  0  0  0
  7  8  1  0  0  0  0
  8  9  1  0  0  0  0
  9 10  4  0  0  0  0
  9 35  4  0  0  0  0
 10 11  4  0  0  0  0
 11 12  4  0  0  0  0
 12 13  1  0  0  0  0
 12 35  4  0  0  0  0
 13 14  2  0  0  0  0
 13 15  1  0  0  0  0
 15 16  1  0  0  0  0
 16 17  1  0  0  0  0
 17 18  1  0  0  0  0
 18 19  1  0  0  0  0
 19 20  1  0  0  0  0
 20 21  1  0  0  0  0
 21 22  1  0  0  0  0
 21 26  1  0  0  0  0
 22 23  1  0  0  0  0
 23 24  1  0  0  0  0
 24 25  1  0  0  0  0
 24 27  1  0  0  0  0
 25 26  1  0  0  0  0
 27 28  4  0  0  0  0
 27 32  4  0  0  0  0
 28 29  4  0  0  0  0
 29 30  4  0  0  0  0
 30 31  4  0  0  0  0
 31 32  4  0  0  0  0
 32 33  1  0  0  0  0
 33 34  1  0  0  0  0
 35 36  1  0  0  0  0
 36 37  1  0  0  0  0
 37 38  1  0  0  0  0
M  END
>  <Name_Molregno>
367033

>  <DOPAMINE D2>
8.28

>  <DOPAMINE D3>
8.13

>  <DOPAMINE D4>
7.4

$$$$
367038
  Marvin  02231216192D 0   1.00000     0.00000     0

 34 37  0  0  0  0  0  0  0  0999 V2000
   -9.0273   -2.3226    0.0000 O   0  0  0  0  0  0  0  0  0
   -9.0273   -3.1476    0.0000 C   0  0  0  0  0  0  0  0  0
   -9.7418   -1.9101    0.0000 C   0  0  0  0  0  0  0  0  0
  -10.4563   -2.3226    0.0000 C   0  0  0  0  0  0  0  0  0
  -11.1707   -1.9101    0.0000 C   0  0  0  0  0  0  0  0  0
  -11.1707   -1.0851    0.0000 C   0  0  0  0  0  0  0  0  0
  -10.4563   -0.6726    0.0000 C   0  0  0  0  0  0  0  0  0
   -9.7418   -1.0851    0.0000 C   0  0  0  0  0  0  0  0  0
   -9.0273   -0.6726    0.0000 N   0  0  0  0  0  0  0  0  0
   -9.0273    0.1524    0.0000 C   0  0  0  0  0  0  0  0  0
   -8.3129    0.5649    0.0000 C   0  0  0  0  0  0  0  0  0
   -7.5984    0.1524    0.0000 N   0  0  0  0  0  0  0  0  0
   -7.5984   -0.6726    0.0000 C   0  0  0  0  0  0  0  0  0
   -8.3129   -1.0851    0.0000 C   0  0  0  0  0  0  0  0  0
   -6.8839    0.5649    0.0000 C   0  0  0  0  0  0  0  0  0
   -6.1694    0.1524    0.0000 C   0  0  0  0  0  0  0  0  0
   -5.4550    0.5649    0.0000 C   0  0  0  0  0  0  0  0  0
   -4.7405    0.1524    0.0000 C   0  0  0  0  0  0  0  0  0
   -4.0260    0.5649    0.0000 N   0  0  0  0  0  0  0  0  0
   -3.3116    0.1524    0.0000 C   0  0  0  0  0  0  0  0  0
   -3.3116   -0.6726    0.0000 O   0  0  0  0  0  0  0  0  0
   -2.5971    0.5649    0.0000 C   0  0  0  0  0  0  0  0  0
   -2.5109    1.3853    0.0000 N   0  0  0  0  0  0  0  0  0
   -1.7039    1.5569    0.0000 N   0  0  0  0  0  0  0  0  0
   -1.2914    0.8424    0.0000 N   0  0  0  0  0  0  0  0  0
   -0.4709    0.7562    0.0000 C   0  0  0  0  0  0  0  0  0
    0.0140    1.4236    0.0000 C   0  0  0  0  0  0  0  0  0
   -0.3215    2.1773    0.0000 C   0  0  0  0  0  0  0  0  0
    0.1634    2.8447    0.0000 C   0  0  0  0  0  0  0  0  0
    0.9839    2.7585    0.0000 C   0  0  0  0  0  0  0  0  0
    1.3194    2.0048    0.0000 C   0  0  0  0  0  0  0  0  0
    0.8345    1.3374    0.0000 C   0  0  0  0  0  0  0  0  0
   -1.8434    0.2293    0.0000 C   0  0  0  0  0  0  0  0  0
   -1.6719   -0.5777    0.0000 C   0  0  0  0  0  0  0  0  0
  1  2  1  0  0  0  0
  1  3  1  0  0  0  0
  3  4  4  0  0  0  0
  3  8  4  0  0  0  0
  4  5  4  0  0  0  0
  5  6  4  0  0  0  0
  6  7  4  0  0  0  0
  7  8  4  0  0  0  0
  8  9  1  0  0  0  0
  9 10  1  0  0  0  0
  9 14  1  0  0  0  0
 10 11  1  0  0  0  0
 11 12  1  0  0  0  0
 12 13  1  0  0  0  0
 12 15  1  0  0  0  0
 13 14  1  0  0  0  0
 15 16  1  0  0  0  0
 16 17  1  0  0  0  0
 17 18  1  0  0  0  0
 18 19  1  0  0  0  0
 19 20  1  0  0  0  0
 20 21  2  0  0  0  0
 20 22  1  0  0  0  0
 22 23  4  0  0  0  0
 22 33  4  0  0  0  0
 23 24  4  0  0  0  0
 24 25  4  0  0  0  0
 25 26  1  0  0  0  0
 25 33  4  0  0  0  0
 26 27  1  0  0  0  0
 27 28  4  0  0  0  0
 27 32  4  0  0  0  0
 28 29  4  0  0  0  0
 29 30  4  0  0  0  0
 30 31  4  0  0  0  0
 31 32  4  0  0  0  0
 33 34  1  0  0  0  0
M  END
>  <Name_Molregno>
367038

>  <DOPAMINE D2>
6.64

>  <DOPAMINE D3>
7.17

>  <DOPAMINE D4>
6.01

$$$$
367039
  Marvin  02231216192D 0   1.00000     0.00000     0

 35 38  0  0  0  0  0  0  0  0999 V2000
   -0.0413    0.1780    0.0000 Cl  0  0  0  0  0  0  0  0  0
   -0.0413   -0.6470    0.0000 C   0  0  0  0  0  0  0  0  0
    0.6732   -1.0595    0.0000 C   0  0  0  0  0  0  0  0  0
    1.3876   -0.6470    0.0000 N   0  0  0  0  0  0  0  0  0
    1.3876    0.1780    0.0000 C   0  0  0  0  0  0  0  0  0
    2.1021    0.5905    0.0000 C   0  0  0  0  0  0  0  0  0
    2.8166    0.1780    0.0000 N   0  0  0  0  0  0  0  0  0
    2.8166   -0.6470    0.0000 C   0  0  0  0  0  0  0  0  0
    2.1021   -1.0595    0.0000 C   0  0  0  0  0  0  0  0  0
    3.5311    0.5905    0.0000 C   0  0  0  0  0  0  0  0  0
    4.2455    0.1780    0.0000 C   0  0  0  0  0  0  0  0  0
    4.9600    0.5905    0.0000 C   0  0  0  0  0  0  0  0  0
    5.6745    0.1780    0.0000 C   0  0  0  0  0  0  0  0  0
    6.3889    0.5905    0.0000 C   0  0  0  0  0  0  0  0  0
    7.1034    0.1780    0.0000 N   0  0  0  0  0  0  0  0  0
    7.8179    0.5905    0.0000 C   0  0  0  0  0  0  0  0  0
    7.8179    1.4155    0.0000 O   0  0  0  0  0  0  0  0  0
    8.5324    0.1780    0.0000 C   0  0  0  0  0  0  0  0  0
    9.2860    0.5135    0.0000 N   0  0  0  0  0  0  0  0  0
    9.8381   -0.0996    0.0000 N   0  0  0  0  0  0  0  0  0
    9.4256   -0.8140    0.0000 N   0  0  0  0  0  0  0  0  0
    9.7611   -1.5677    0.0000 C   0  0  0  0  0  0  0  0  0
   10.5816   -1.6540    0.0000 C   0  0  0  0  0  0  0  0  0
   11.0665   -0.9865    0.0000 C   0  0  0  0  0  0  0  0  0
   11.8870   -1.0728    0.0000 C   0  0  0  0  0  0  0  0  0
   12.2226   -1.8264    0.0000 C   0  0  0  0  0  0  0  0  0
   11.7376   -2.4939    0.0000 C   0  0  0  0  0  0  0  0  0
   10.9172   -2.4076    0.0000 C   0  0  0  0  0  0  0  0  0
    8.6186   -0.6425    0.0000 C   0  0  0  0  0  0  0  0  0
    8.0055   -1.1945    0.0000 C   0  0  0  0  0  0  0  0  0
    0.6732   -1.8845    0.0000 C   0  0  0  0  0  0  0  0  0
   -0.0413   -2.2970    0.0000 C   0  0  0  0  0  0  0  0  0
   -0.7558   -1.8845    0.0000 C   0  0  0  0  0  0  0  0  0
   -0.7558   -1.0595    0.0000 C   0  0  0  0  0  0  0  0  0
   -1.4702   -0.6470    0.0000 Cl  0  0  0  0  0  0  0  0  0
  1  2  1  0  0  0  0
  2  3  4  0  0  0  0
  2 34  4  0  0  0  0
  3  4  1  0  0  0  0
  3 31  4  0  0  0  0
  4  5  1  0  0  0  0
  4  9  1  0  0  0  0
  5  6  1  0  0  0  0
  6  7  1  0  0  0  0
  7  8  1  0  0  0  0
  7 10  1  0  0  0  0
  8  9  1  0  0  0  0
 10 11  1  0  0  0  0
 11 12  1  0  0  0  0
 12 13  1  0  0  0  0
 13 14  1  0  0  0  0
 14 15  1  0  0  0  0
 15 16  1  0  0  0  0
 16 17  2  0  0  0  0
 16 18  1  0  0  0  0
 18 19  4  0  0  0  0
 18 29  4  0  0  0  0
 19 20  4  0  0  0  0
 20 21  4  0  0  0  0
 21 22  1  0  0  0  0
 21 29  4  0  0  0  0
 22 23  1  0  0  0  0
 23 24  4  0  0  0  0
 23 28  4  0  0  0  0
 24 25  4  0  0  0  0
 25 26  4  0  0  0  0
 26 27  4  0  0  0  0
 27 28  4  0  0  0  0
 29 30  1  0  0  0  0
 31 32  4  0  0  0  0
 32 33  4  0  0  0  0
 33 34  4  0  0  0  0
 34 35  1  0  0  0  0
M  END
>  <Name_Molregno>
367039

>  <DOPAMINE D2>
8

>  <DOPAMINE D3>
8.07

>  <DOPAMINE D4>
6.6

$$$$
367050
  Marvin  02231216192D 0   1.00000     0.00000     0

 35 38  0  0  0  0  0  0  0  0999 V2000
  -11.0153    0.4287    0.0000 O   0  0  0  0  0  0  0  0  0
  -11.7298    0.0162    0.0000 C   0  0  0  0  0  0  0  0  0
  -11.0153    1.2537    0.0000 C   0  0  0  0  0  0  0  0  0
  -11.7298    1.6662    0.0000 C   0  0  0  0  0  0  0  0  0
  -11.7298    2.4912    0.0000 C   0  0  0  0  0  0  0  0  0
  -11.0153    2.9037    0.0000 C   0  0  0  0  0  0  0  0  0
  -10.3009    2.4912    0.0000 C   0  0  0  0  0  0  0  0  0
  -10.3009    1.6662    0.0000 C   0  0  0  0  0  0  0  0  0
   -9.5864    1.2537    0.0000 N   0  0  0  0  0  0  0  0  0
   -8.8719    1.6662    0.0000 C   0  0  0  0  0  0  0  0  0
   -8.1575    1.2537    0.0000 C   0  0  0  0  0  0  0  0  0
   -8.1575    0.4287    0.0000 N   0  0  0  0  0  0  0  0  0
   -8.8719    0.0162    0.0000 C   0  0  0  0  0  0  0  0  0
   -9.5864    0.4287    0.0000 C   0  0  0  0  0  0  0  0  0
   -7.4430    0.0162    0.0000 C   0  0  0  0  0  0  0  0  0
   -6.7285    0.4287    0.0000 C   0  0  0  0  0  0  0  0  0
   -6.0140    0.0162    0.0000 C   0  0  0  0  0  0  0  0  0
   -5.2996    0.4287    0.0000 C   0  0  0  0  0  0  0  0  0
   -4.5851    0.0162    0.0000 C   0  0  0  0  0  0  0  0  0
   -3.8706    0.4287    0.0000 N   0  0  0  0  0  0  0  0  0
   -3.1562    0.0162    0.0000 C   0  0  0  0  0  0  0  0  0
   -3.1562   -0.8088    0.0000 O   0  0  0  0  0  0  0  0  0
   -2.4417    0.4287    0.0000 C   0  0  0  0  0  0  0  0  0
   -2.3555    1.2491    0.0000 N   0  0  0  0  0  0  0  0  0
   -1.5485    1.4207    0.0000 N   0  0  0  0  0  0  0  0  0
   -1.1360    0.7062    0.0000 N   0  0  0  0  0  0  0  0  0
   -0.3155    0.6200    0.0000 C   0  0  0  0  0  0  0  0  0
    0.0201   -0.1337    0.0000 C   0  0  0  0  0  0  0  0  0
    0.8405   -0.2200    0.0000 C   0  0  0  0  0  0  0  0  0
    1.1761   -0.9736    0.0000 C   0  0  0  0  0  0  0  0  0
    0.6912   -1.6411    0.0000 C   0  0  0  0  0  0  0  0  0
   -0.1293   -1.5548    0.0000 C   0  0  0  0  0  0  0  0  0
   -0.4649   -0.8012    0.0000 C   0  0  0  0  0  0  0  0  0
   -1.6880    0.0931    0.0000 C   0  0  0  0  0  0  0  0  0
   -1.5165   -0.7139    0.0000 C   0  0  0  0  0  0  0  0  0
  1  2  1  0  0  0  0
  1  3  1  0  0  0  0
  3  4  4  0  0  0  0
  3  8  4  0  0  0  0
  4  5  4  0  0  0  0
  5  6  4  0  0  0  0
  6  7  4  0  0  0  0
  7  8  4  0  0  0  0
  8  9  1  0  0  0  0
  9 10  1  0  0  0  0
  9 14  1  0  0  0  0
 10 11  1  0  0  0  0
 11 12  1  0  0  0  0
 12 13  1  0  0  0  0
 12 15  1  0  0  0  0
 13 14  1  0  0  0  0
 15 16  1  0  0  0  0
 16 17  1  0  0  0  0
 17 18  1  0  0  0  0
 18 19  1  0  0  0  0
 19 20  1  0  0  0  0
 20 21  1  0  0  0  0
 21 22  2  0  0  0  0
 21 23  1  0  0  0  0
 23 24  4  0  0  0  0
 23 34  4  0  0  0  0
 24 25  4  0  0  0  0
 25 26  4  0  0  0  0
 26 27  1  0  0  0  0
 26 34  4  0  0  0  0
 27 28  1  0  0  0  0
 28 29  4  0  0  0  0
 28 33  4  0  0  0  0
 29 30  4  0  0  0  0
 30 31  4  0  0  0  0
 31 32  4  0  0  0  0
 32 33  4  0  0  0  0
 34 35  1  0  0  0  0
M  END
>  <Name_Molregno>
367050

>  <DOPAMINE D2>
8.03

>  <DOPAMINE D3>
7.8

>  <DOPAMINE D4>
6.8

$$$$
367064
  Marvin  02231216192D 0   1.00000     0.00000     0

 36 39  0  0  0  0  0  0  0  0999 V2000
  -10.7953   -0.0110    0.0000 Cl  0  0  0  0  0  0  0  0  0
  -10.7953   -0.8360    0.0000 C   0  0  0  0  0  0  0  0  0
  -10.0808   -1.2485    0.0000 C   0  0  0  0  0  0  0  0  0
   -9.3663   -0.8360    0.0000 N   0  0  0  0  0  0  0  0  0
   -9.3663   -0.0110    0.0000 C   0  0  0  0  0  0  0  0  0
   -8.6519    0.4015    0.0000 C   0  0  0  0  0  0  0  0  0
   -7.9374   -0.0110    0.0000 N   0  0  0  0  0  0  0  0  0
   -7.9374   -0.8360    0.0000 C   0  0  0  0  0  0  0  0  0
   -8.6519   -1.2485    0.0000 C   0  0  0  0  0  0  0  0  0
   -7.2229    0.4015    0.0000 C   0  0  0  0  0  0  0  0  0
   -6.5085   -0.0110    0.0000 C   0  0  0  0  0  0  0  0  0
   -5.7940    0.4015    0.0000 C   0  0  0  0  0  0  0  0  0
   -5.0795   -0.0110    0.0000 C   0  0  0  0  0  0  0  0  0
   -4.3650    0.4015    0.0000 N   0  0  0  0  0  0  0  0  0
   -3.6506   -0.0110    0.0000 C   0  0  0  0  0  0  0  0  0
   -3.6506   -0.8360    0.0000 O   0  0  0  0  0  0  0  0  0
   -2.9361    0.4015    0.0000 C   0  0  0  0  0  0  0  0  0
   -2.8499    1.2220    0.0000 N   0  0  0  0  0  0  0  0  0
   -2.0429    1.3935    0.0000 N   0  0  0  0  0  0  0  0  0
   -1.6304    0.6790    0.0000 N   0  0  0  0  0  0  0  0  0
   -0.8099    0.5928    0.0000 C   0  0  0  0  0  0  0  0  0
   -0.3250    1.2602    0.0000 C   0  0  0  0  0  0  0  0  0
   -0.6605    2.0139    0.0000 C   0  0  0  0  0  0  0  0  0
   -0.1756    2.6814    0.0000 C   0  0  0  0  0  0  0  0  0
    0.6449    2.5951    0.0000 C   0  0  0  0  0  0  0  0  0
    0.9804    1.8414    0.0000 C   0  0  0  0  0  0  0  0  0
    0.4955    1.1740    0.0000 C   0  0  0  0  0  0  0  0  0
   -2.1824    0.0659    0.0000 C   0  0  0  0  0  0  0  0  0
   -2.0109   -0.7410    0.0000 C   0  0  0  0  0  0  0  0  0
   -1.2263   -0.9960    0.0000 C   0  0  0  0  0  0  0  0  0
   -1.0547   -1.8029    0.0000 C   0  0  0  0  0  0  0  0  0
  -10.0808   -2.0735    0.0000 C   0  0  0  0  0  0  0  0  0
  -10.7953   -2.4860    0.0000 C   0  0  0  0  0  0  0  0  0
  -11.5098   -2.0735    0.0000 C   0  0  0  0  0  0  0  0  0
  -11.5098   -1.2485    0.0000 C   0  0  0  0  0  0  0  0  0
  -12.2242   -0.8360    0.0000 Cl  0  0  0  0  0  0  0  0  0
  1  2  1  0  0  0  0
  2  3  4  0  0  0  0
  2 35  4  0  0  0  0
  3  4  1  0  0  0  0
  3 32  4  0  0  0  0
  4  5  1  0  0  0  0
  4  9  1  0  0  0  0
  5  6  1  0  0  0  0
  6  7  1  0  0  0  0
  7  8  1  0  0  0  0
  7 10  1  0  0  0  0
  8  9  1  0  0  0  0
 10 11  1  0  0  0  0
 11 12  1  0  0  0  0
 12 13  1  0  0  0  0
 13 14  1  0  0  0  0
 14 15  1  0  0  0  0
 15 16  2  0  0  0  0
 15 17  1  0  0  0  0
 17 18  4  0  0  0  0
 17 28  4  0  0  0  0
 18 19  4  0  0  0  0
 19 20  4  0  0  0  0
 20 21  1  0  0  0  0
 20 28  4  0  0  0  0
 21 22  1  0  0  0  0
 22 23  4  0  0  0  0
 22 27  4  0  0  0  0
 23 24  4  0  0  0  0
 24 25  4  0  0  0  0
 25 26  4  0  0  0  0
 26 27  4  0  0  0  0
 28 29  1  0  0  0  0
 29 30  1  0  0  0  0
 30 31  1  0  0  0  0
 32 33  4  0  0  0  0
 33 34  4  0  0  0  0
 34 35  4  0  0  0  0
 35 36  1  0  0  0  0
M  END
>  <Name_Molregno>
367064

>  <DOPAMINE D2>
7.85

>  <DOPAMINE D3>
8.62

>  <DOPAMINE D4>
6.66

$$$$
367065
  Marvin  02231216192D 0   1.00000     0.00000     0

 36 39  0  0  0  0  0  0  0  0999 V2000
    0.4844   -2.3845    0.0000 O   0  0  0  0  0  0  0  0  0
    0.4844   -3.2095    0.0000 C   0  0  0  0  0  0  0  0  0
   -0.2300   -1.9720    0.0000 C   0  0  0  0  0  0  0  0  0
   -0.9445   -2.3845    0.0000 C   0  0  0  0  0  0  0  0  0
   -1.6590   -1.9720    0.0000 C   0  0  0  0  0  0  0  0  0
   -1.6590   -1.1470    0.0000 C   0  0  0  0  0  0  0  0  0
   -0.9445   -0.7345    0.0000 C   0  0  0  0  0  0  0  0  0
   -0.2300   -1.1470    0.0000 C   0  0  0  0  0  0  0  0  0
    0.4844   -0.7345    0.0000 N   0  0  0  0  0  0  0  0  0
    0.4844    0.0905    0.0000 C   0  0  0  0  0  0  0  0  0
    1.1989    0.5030    0.0000 C   0  0  0  0  0  0  0  0  0
    1.9134    0.0905    0.0000 N   0  0  0  0  0  0  0  0  0
    1.9134   -0.7345    0.0000 C   0  0  0  0  0  0  0  0  0
    1.1989   -1.1470    0.0000 C   0  0  0  0  0  0  0  0  0
    2.6279    0.5030    0.0000 C   0  0  0  0  0  0  0  0  0
    3.3423    0.0905    0.0000 C   0  0  0  0  0  0  0  0  0
    4.0568    0.5030    0.0000 C   0  0  0  0  0  0  0  0  0
    4.7713    0.0905    0.0000 C   0  0  0  0  0  0  0  0  0
    5.4857    0.5030    0.0000 N   0  0  0  0  0  0  0  0  0
    6.2002    0.0905    0.0000 C   0  0  0  0  0  0  0  0  0
    6.2002   -0.7345    0.0000 O   0  0  0  0  0  0  0  0  0
    6.9147    0.5030    0.0000 C   0  0  0  0  0  0  0  0  0
    7.0009    1.3235    0.0000 N   0  0  0  0  0  0  0  0  0
    7.8079    1.4950    0.0000 N   0  0  0  0  0  0  0  0  0
    8.2204    0.7806    0.0000 N   0  0  0  0  0  0  0  0  0
    9.0409    0.6943    0.0000 C   0  0  0  0  0  0  0  0  0
    9.5258    1.3618    0.0000 C   0  0  0  0  0  0  0  0  0
    9.1902    2.1155    0.0000 C   0  0  0  0  0  0  0  0  0
    9.6752    2.7829    0.0000 C   0  0  0  0  0  0  0  0  0
   10.4956    2.6967    0.0000 C   0  0  0  0  0  0  0  0  0
   10.8312    1.9430    0.0000 C   0  0  0  0  0  0  0  0  0
   10.3463    1.2755    0.0000 C   0  0  0  0  0  0  0  0  0
    7.6684    0.1675    0.0000 C   0  0  0  0  0  0  0  0  0
    7.8399   -0.6395    0.0000 C   0  0  0  0  0  0  0  0  0
    8.6245   -0.8944    0.0000 C   0  0  0  0  0  0  0  0  0
    8.7960   -1.7014    0.0000 C   0  0  0  0  0  0  0  0  0
  1  2  1  0  0  0  0
  1  3  1  0  0  0  0
  3  4  4  0  0  0  0
  3  8  4  0  0  0  0
  4  5  4  0  0  0  0
  5  6  4  0  0  0  0
  6  7  4  0  0  0  0
  7  8  4  0  0  0  0
  8  9  1  0  0  0  0
  9 10  1  0  0  0  0
  9 14  1  0  0  0  0
 10 11  1  0  0  0  0
 11 12  1  0  0  0  0
 12 13  1  0  0  0  0
 12 15  1  0  0  0  0
 13 14  1  0  0  0  0
 15 16  1  0  0  0  0
 16 17  1  0  0  0  0
 17 18  1  0  0  0  0
 18 19  1  0  0  0  0
 19 20  1  0  0  0  0
 20 21  2  0  0  0  0
 20 22  1  0  0  0  0
 22 23  4  0  0  0  0
 22 33  4  0  0  0  0
 23 24  4  0  0  0  0
 24 25  4  0  0  0  0
 25 26  1  0  0  0  0
 25 33  4  0  0  0  0
 26 27  1  0  0  0  0
 27 28  4  0  0  0  0
 27 32  4  0  0  0  0
 28 29  4  0  0  0  0
 29 30  4  0  0  0  0
 30 31  4  0  0  0  0
 31 32  4  0  0  0  0
 33 34  1  0  0  0  0
 34 35  1  0  0  0  0
 35 36  1  0  0  0  0
M  END
>  <Name_Molregno>
367065

>  <DOPAMINE D2>
7.24

>  <DOPAMINE D3>
7.96

>  <DOPAMINE D4>
6.52

$$$$
367071
  Marvin  02231216192D 0   1.00000     0.00000     0

 36 39  0  0  0  0  0  0  0  0999 V2000
   -9.7154   -1.5143    0.0000 O   0  0  0  0  0  0  0  0  0
   -9.7154   -2.3393    0.0000 C   0  0  0  0  0  0  0  0  0
  -10.4299   -1.1018    0.0000 C   0  0  0  0  0  0  0  0  0
  -11.1444   -1.5143    0.0000 C   0  0  0  0  0  0  0  0  0
  -11.8588   -1.1018    0.0000 C   0  0  0  0  0  0  0  0  0
  -11.8588   -0.2768    0.0000 C   0  0  0  0  0  0  0  0  0
  -11.1444    0.1357    0.0000 C   0  0  0  0  0  0  0  0  0
  -10.4299   -0.2768    0.0000 C   0  0  0  0  0  0  0  0  0
   -9.7154    0.1357    0.0000 N   0  0  0  0  0  0  0  0  0
   -9.7154    0.9607    0.0000 C   0  0  0  0  0  0  0  0  0
   -9.0009    1.3732    0.0000 C   0  0  0  0  0  0  0  0  0
   -8.2865    0.9607    0.0000 N   0  0  0  0  0  0  0  0  0
   -8.2865    0.1357    0.0000 C   0  0  0  0  0  0  0  0  0
   -9.0009   -0.2768    0.0000 C   0  0  0  0  0  0  0  0  0
   -7.5720    1.3732    0.0000 C   0  0  0  0  0  0  0  0  0
   -6.8575    0.9607    0.0000 C   0  0  0  0  0  0  0  0  0
   -6.1431    1.3732    0.0000 C   0  0  0  0  0  0  0  0  0
   -5.4286    0.9607    0.0000 C   0  0  0  0  0  0  0  0  0
   -4.7141    1.3732    0.0000 N   0  0  0  0  0  0  0  0  0
   -3.9996    0.9607    0.0000 C   0  0  0  0  0  0  0  0  0
   -3.9996    0.1357    0.0000 O   0  0  0  0  0  0  0  0  0
   -3.2852    1.3732    0.0000 C   0  0  0  0  0  0  0  0  0
   -3.1989    2.1937    0.0000 N   0  0  0  0  0  0  0  0  0
   -2.3920    2.3652    0.0000 N   0  0  0  0  0  0  0  0  0
   -1.9795    1.6508    0.0000 N   0  0  0  0  0  0  0  0  0
   -1.1590    1.5645    0.0000 C   0  0  0  0  0  0  0  0  0
   -0.8234    0.8109    0.0000 C   0  0  0  0  0  0  0  0  0
   -0.0030    0.7246    0.0000 C   0  0  0  0  0  0  0  0  0
    0.3326   -0.0291    0.0000 C   0  0  0  0  0  0  0  0  0
   -0.1523   -0.6965    0.0000 C   0  0  0  0  0  0  0  0  0
    0.1832   -1.4502    0.0000 O   0  0  0  0  0  0  0  0  0
    1.0037   -1.5364    0.0000 C   0  0  0  0  0  0  0  0  0
   -0.9728   -0.6103    0.0000 C   0  0  0  0  0  0  0  0  0
   -1.3084    0.1434    0.0000 C   0  0  0  0  0  0  0  0  0
   -2.5315    1.0377    0.0000 C   0  0  0  0  0  0  0  0  0
   -2.3600    0.2307    0.0000 C   0  0  0  0  0  0  0  0  0
  1  2  1  0  0  0  0
  1  3  1  0  0  0  0
  3  4  4  0  0  0  0
  3  8  4  0  0  0  0
  4  5  4  0  0  0  0
  5  6  4  0  0  0  0
  6  7  4  0  0  0  0
  7  8  4  0  0  0  0
  8  9  1  0  0  0  0
  9 10  1  0  0  0  0
  9 14  1  0  0  0  0
 10 11  1  0  0  0  0
 11 12  1  0  0  0  0
 12 13  1  0  0  0  0
 12 15  1  0  0  0  0
 13 14  1  0  0  0  0
 15 16  1  0  0  0  0
 16 17  1  0  0  0  0
 17 18  1  0  0  0  0
 18 19  1  0  0  0  0
 19 20  1  0  0  0  0
 20 21  2  0  0  0  0
 20 22  1  0  0  0  0
 22 23  4  0  0  0  0
 22 35  4  0  0  0  0
 23 24  4  0  0  0  0
 24 25  4  0  0  0  0
 25 26  1  0  0  0  0
 25 35  4  0  0  0  0
 26 27  1  0  0  0  0
 27 28  4  0  0  0  0
 27 34  4  0  0  0  0
 28 29  4  0  0  0  0
 29 30  4  0  0  0  0
 30 31  1  0  0  0  0
 30 33  4  0  0  0  0
 31 32  1  0  0  0  0
 33 34  4  0  0  0  0
 35 36  1  0  0  0  0
M  END
>  <Name_Molregno>
367071

>  <DOPAMINE D2>
7.26

>  <DOPAMINE D3>
7.54

>  <DOPAMINE D4>
6.55

$$$$
367084
  Marvin  02231216192D 0   1.00000     0.00000     0

 37 40  0  0  0  0  0  0  0  0999 V2000
  -11.6441    0.0329    0.0000 Cl  0  0  0  0  0  0  0  0  0
  -11.6441   -0.7921    0.0000 C   0  0  0  0  0  0  0  0  0
  -10.9296   -1.2046    0.0000 C   0  0  0  0  0  0  0  0  0
  -10.2152   -0.7921    0.0000 N   0  0  0  0  0  0  0  0  0
  -10.2152    0.0329    0.0000 C   0  0  0  0  0  0  0  0  0
   -9.5007    0.4454    0.0000 C   0  0  0  0  0  0  0  0  0
   -8.7862    0.0329    0.0000 N   0  0  0  0  0  0  0  0  0
   -8.7862   -0.7921    0.0000 C   0  0  0  0  0  0  0  0  0
   -9.5007   -1.2046    0.0000 C   0  0  0  0  0  0  0  0  0
   -8.0718    0.4454    0.0000 C   0  0  0  0  0  0  0  0  0
   -7.3573    0.0329    0.0000 C   0  0  0  0  0  0  0  0  0
   -6.6428    0.4454    0.0000 C   0  0  0  0  0  0  0  0  0
   -5.9283    0.0329    0.0000 C   0  0  0  0  0  0  0  0  0
   -5.2139    0.4454    0.0000 C   0  0  0  0  0  0  0  0  0
   -4.4994    0.0329    0.0000 N   0  0  0  0  0  0  0  0  0
   -3.7849    0.4454    0.0000 C   0  0  0  0  0  0  0  0  0
   -3.7849    1.2704    0.0000 O   0  0  0  0  0  0  0  0  0
   -3.0705    0.0329    0.0000 C   0  0  0  0  0  0  0  0  0
   -2.3168    0.3684    0.0000 N   0  0  0  0  0  0  0  0  0
   -1.7647   -0.2447    0.0000 N   0  0  0  0  0  0  0  0  0
   -2.1772   -0.9591    0.0000 N   0  0  0  0  0  0  0  0  0
   -1.8417   -1.7128    0.0000 C   0  0  0  0  0  0  0  0  0
   -1.0212   -1.7990    0.0000 C   0  0  0  0  0  0  0  0  0
   -0.5363   -1.1316    0.0000 C   0  0  0  0  0  0  0  0  0
    0.2842   -1.2178    0.0000 C   0  0  0  0  0  0  0  0  0
    0.6198   -1.9715    0.0000 C   0  0  0  0  0  0  0  0  0
    1.4402   -2.0577    0.0000 O   0  0  0  0  0  0  0  0  0
    1.7758   -2.8114    0.0000 C   0  0  0  0  0  0  0  0  0
    0.1348   -2.6390    0.0000 C   0  0  0  0  0  0  0  0  0
   -0.6856   -2.5527    0.0000 C   0  0  0  0  0  0  0  0  0
   -2.9842   -0.7876    0.0000 C   0  0  0  0  0  0  0  0  0
   -3.5973   -1.3396    0.0000 C   0  0  0  0  0  0  0  0  0
  -10.9296   -2.0296    0.0000 C   0  0  0  0  0  0  0  0  0
  -11.6441   -2.4421    0.0000 C   0  0  0  0  0  0  0  0  0
  -12.3586   -2.0296    0.0000 C   0  0  0  0  0  0  0  0  0
  -12.3586   -1.2046    0.0000 C   0  0  0  0  0  0  0  0  0
  -13.0730   -0.7921    0.0000 Cl  0  0  0  0  0  0  0  0  0
  1  2  1  0  0  0  0
  2  3  4  0  0  0  0
  2 36  4  0  0  0  0
  3  4  1  0  0  0  0
  3 33  4  0  0  0  0
  4  5  1  0  0  0  0
  4  9  1  0  0  0  0
  5  6  1  0  0  0  0
  6  7  1  0  0  0  0
  7  8  1  0  0  0  0
  7 10  1  0  0  0  0
  8  9  1  0  0  0  0
 10 11  1  0  0  0  0
 11 12  1  0  0  0  0
 12 13  1  0  0  0  0
 13 14  1  0  0  0  0
 14 15  1  0  0  0  0
 15 16  1  0  0  0  0
 16 17  2  0  0  0  0
 16 18  1  0  0  0  0
 18 19  4  0  0  0  0
 18 31  4  0  0  0  0
 19 20  4  0  0  0  0
 20 21  4  0  0  0  0
 21 22  1  0  0  0  0
 21 31  4  0  0  0  0
 22 23  1  0  0  0  0
 23 24  4  0  0  0  0
 23 30  4  0  0  0  0
 24 25  4  0  0  0  0
 25 26  4  0  0  0  0
 26 27  1  0  0  0  0
 26 29  4  0  0  0  0
 27 28  1  0  0  0  0
 29 30  4  0  0  0  0
 31 32  1  0  0  0  0
 33 34  4  0  0  0  0
 34 35  4  0  0  0  0
 35 36  4  0  0  0  0
 36 37  1  0  0  0  0
M  END
>  <Name_Molregno>
367084

>  <DOPAMINE D2>
8.04

>  <DOPAMINE D3>
7.47

>  <DOPAMINE D4>
6.54

$$$$
367089
  Marvin  02231216192D 0   1.00000     0.00000     0

 37 40  0  0  0  0  0  0  0  0999 V2000
  -11.7760    0.7523    0.0000 O   0  0  0  0  0  0  0  0  0
  -12.4904    0.3398    0.0000 C   0  0  0  0  0  0  0  0  0
  -11.7760    1.5773    0.0000 C   0  0  0  0  0  0  0  0  0
  -12.4904    1.9898    0.0000 C   0  0  0  0  0  0  0  0  0
  -12.4904    2.8148    0.0000 C   0  0  0  0  0  0  0  0  0
  -11.7760    3.2273    0.0000 C   0  0  0  0  0  0  0  0  0
  -11.0615    2.8148    0.0000 C   0  0  0  0  0  0  0  0  0
  -11.0615    1.9898    0.0000 C   0  0  0  0  0  0  0  0  0
  -10.3470    1.5773    0.0000 N   0  0  0  0  0  0  0  0  0
   -9.6326    1.9898    0.0000 C   0  0  0  0  0  0  0  0  0
   -8.9181    1.5773    0.0000 C   0  0  0  0  0  0  0  0  0
   -8.9181    0.7523    0.0000 N   0  0  0  0  0  0  0  0  0
   -9.6326    0.3398    0.0000 C   0  0  0  0  0  0  0  0  0
  -10.3470    0.7523    0.0000 C   0  0  0  0  0  0  0  0  0
   -8.2036    0.3398    0.0000 C   0  0  0  0  0  0  0  0  0
   -7.4891    0.7523    0.0000 C   0  0  0  0  0  0  0  0  0
   -6.7747    0.3398    0.0000 C   0  0  0  0  0  0  0  0  0
   -6.0602    0.7523    0.0000 C   0  0  0  0  0  0  0  0  0
   -5.3457    0.3398    0.0000 C   0  0  0  0  0  0  0  0  0
   -4.6313    0.7523    0.0000 N   0  0  0  0  0  0  0  0  0
   -3.9168    0.3398    0.0000 C   0  0  0  0  0  0  0  0  0
   -3.9168   -0.4852    0.0000 O   0  0  0  0  0  0  0  0  0
   -3.2023    0.7523    0.0000 C   0  0  0  0  0  0  0  0  0
   -3.1161    1.5728    0.0000 N   0  0  0  0  0  0  0  0  0
   -2.3091    1.7444    0.0000 N   0  0  0  0  0  0  0  0  0
   -1.8966    1.0299    0.0000 N   0  0  0  0  0  0  0  0  0
   -1.0761    0.9436    0.0000 C   0  0  0  0  0  0  0  0  0
   -0.7406    0.1900    0.0000 C   0  0  0  0  0  0  0  0  0
    0.0799    0.1037    0.0000 C   0  0  0  0  0  0  0  0  0
    0.4155   -0.6499    0.0000 C   0  0  0  0  0  0  0  0  0
   -0.0695   -1.3174    0.0000 C   0  0  0  0  0  0  0  0  0
    0.2661   -2.0711    0.0000 O   0  0  0  0  0  0  0  0  0
    1.0866   -2.1573    0.0000 C   0  0  0  0  0  0  0  0  0
   -0.8899   -1.2311    0.0000 C   0  0  0  0  0  0  0  0  0
   -1.2255   -0.4775    0.0000 C   0  0  0  0  0  0  0  0  0
   -2.4486    0.4168    0.0000 C   0  0  0  0  0  0  0  0  0
   -2.2771   -0.3902    0.0000 C   0  0  0  0  0  0  0  0  0
  1  2  1  0  0  0  0
  1  3  1  0  0  0  0
  3  4  4  0  0  0  0
  3  8  4  0  0  0  0
  4  5  4  0  0  0  0
  5  6  4  0  0  0  0
  6  7  4  0  0  0  0
  7  8  4  0  0  0  0
  8  9  1  0  0  0  0
  9 10  1  0  0  0  0
  9 14  1  0  0  0  0
 10 11  1  0  0  0  0
 11 12  1  0  0  0  0
 12 13  1  0  0  0  0
 12 15  1  0  0  0  0
 13 14  1  0  0  0  0
 15 16  1  0  0  0  0
 16 17  1  0  0  0  0
 17 18  1  0  0  0  0
 18 19  1  0  0  0  0
 19 20  1  0  0  0  0
 20 21  1  0  0  0  0
 21 22  2  0  0  0  0
 21 23  1  0  0  0  0
 23 24  4  0  0  0  0
 23 36  4  0  0  0  0
 24 25  4  0  0  0  0
 25 26  4  0  0  0  0
 26 27  1  0  0  0  0
 26 36  4  0  0  0  0
 27 28  1  0  0  0  0
 28 29  4  0  0  0  0
 28 35  4  0  0  0  0
 29 30  4  0  0  0  0
 30 31  4  0  0  0  0
 31 32  1  0  0  0  0
 31 34  4  0  0  0  0
 32 33  1  0  0  0  0
 34 35  4  0  0  0  0
 36 37  1  0  0  0  0
M  END
>  <Name_Molregno>
367089

>  <DOPAMINE D2>
7.77

>  <DOPAMINE D3>
7.06

>  <DOPAMINE D4>
6.57

$$$$
367093
  Marvin  02231216192D 0   1.00000     0.00000     0

 38 41  0  0  0  0  0  0  0  0999 V2000
    0.6679   -1.7989    0.0000 O   0  0  0  0  0  0  0  0  0
    0.6679   -2.6239    0.0000 C   0  0  0  0  0  0  0  0  0
   -0.0466   -1.3864    0.0000 C   0  0  0  0  0  0  0  0  0
   -0.7611   -1.7989    0.0000 C   0  0  0  0  0  0  0  0  0
   -1.4755   -1.3864    0.0000 C   0  0  0  0  0  0  0  0  0
   -1.4755   -0.5614    0.0000 C   0  0  0  0  0  0  0  0  0
   -0.7611   -0.1489    0.0000 C   0  0  0  0  0  0  0  0  0
   -0.0466   -0.5614    0.0000 C   0  0  0  0  0  0  0  0  0
    0.6679   -0.1489    0.0000 N   0  0  0  0  0  0  0  0  0
    0.6679    0.6761    0.0000 C   0  0  0  0  0  0  0  0  0
    1.3824    1.0886    0.0000 C   0  0  0  0  0  0  0  0  0
    2.0968    0.6761    0.0000 N   0  0  0  0  0  0  0  0  0
    2.0968   -0.1489    0.0000 C   0  0  0  0  0  0  0  0  0
    1.3824   -0.5614    0.0000 C   0  0  0  0  0  0  0  0  0
    2.8113    1.0886    0.0000 C   0  0  0  0  0  0  0  0  0
    3.5258    0.6761    0.0000 C   0  0  0  0  0  0  0  0  0
    4.2402    1.0886    0.0000 C   0  0  0  0  0  0  0  0  0
    4.9547    0.6761    0.0000 C   0  0  0  0  0  0  0  0  0
    5.6692    1.0886    0.0000 N   0  0  0  0  0  0  0  0  0
    6.3837    0.6761    0.0000 C   0  0  0  0  0  0  0  0  0
    6.3837   -0.1489    0.0000 O   0  0  0  0  0  0  0  0  0
    7.0981    1.0886    0.0000 C   0  0  0  0  0  0  0  0  0
    7.1844    1.9091    0.0000 N   0  0  0  0  0  0  0  0  0
    7.9913    2.0806    0.0000 N   0  0  0  0  0  0  0  0  0
    8.4038    1.3662    0.0000 N   0  0  0  0  0  0  0  0  0
    9.2243    1.2799    0.0000 C   0  0  0  0  0  0  0  0  0
    9.5599    0.5263    0.0000 C   0  0  0  0  0  0  0  0  0
   10.3804    0.4400    0.0000 C   0  0  0  0  0  0  0  0  0
   10.7159   -0.3137    0.0000 C   0  0  0  0  0  0  0  0  0
   10.2310   -0.9811    0.0000 C   0  0  0  0  0  0  0  0  0
   10.5665   -1.7348    0.0000 O   0  0  0  0  0  0  0  0  0
   11.3870   -1.8210    0.0000 C   0  0  0  0  0  0  0  0  0
    9.4105   -0.8949    0.0000 C   0  0  0  0  0  0  0  0  0
    9.0749   -0.1412    0.0000 C   0  0  0  0  0  0  0  0  0
    7.8518    0.7531    0.0000 C   0  0  0  0  0  0  0  0  0
    8.0233   -0.0539    0.0000 C   0  0  0  0  0  0  0  0  0
    7.4102   -0.6059    0.0000 C   0  0  0  0  0  0  0  0  0
    7.5818   -1.4129    0.0000 C   0  0  0  0  0  0  0  0  0
  1  2  1  0  0  0  0
  1  3  1  0  0  0  0
  3  4  4  0  0  0  0
  3  8  4  0  0  0  0
  4  5  4  0  0  0  0
  5  6  4  0  0  0  0
  6  7  4  0  0  0  0
  7  8  4  0  0  0  0
  8  9  1  0  0  0  0
  9 10  1  0  0  0  0
  9 14  1  0  0  0  0
 10 11  1  0  0  0  0
 11 12  1  0  0  0  0
 12 13  1  0  0  0  0
 12 15  1  0  0  0  0
 13 14  1  0  0  0  0
 15 16  1  0  0  0  0
 16 17  1  0  0  0  0
 17 18  1  0  0  0  0
 18 19  1  0  0  0  0
 19 20  1  0  0  0  0
 20 21  2  0  0  0  0
 20 22  1  0  0  0  0
 22 23  4  0  0  0  0
 22 35  4  0  0  0  0
 23 24  4  0  0  0  0
 24 25  4  0  0  0  0
 25 26  1  0  0  0  0
 25 35  4  0  0  0  0
 26 27  1  0  0  0  0
 27 28  4  0  0  0  0
 27 34  4  0  0  0  0
 28 29  4  0  0  0  0
 29 30  4  0  0  0  0
 30 31  1  0  0  0  0
 30 33  4  0  0  0  0
 31 32  1  0  0  0  0
 33 34  4  0  0  0  0
 35 36  1  0  0  0  0
 36 37  1  0  0  0  0
 37 38  1  0  0  0  0
M  END
>  <Name_Molregno>
367093

>  <DOPAMINE D2>
7.37

>  <DOPAMINE D3>
7.89

>  <DOPAMINE D4>
6.89

$$$$
367094
  Marvin  02231216192D 0   1.00000     0.00000     0

 35 38  0  0  0  0  0  0  0  0999 V2000
   -0.7358   -0.2416    0.0000 Br  0  0  0  0  0  0  0  0  0
   -0.4003    0.5121    0.0000 C   0  0  0  0  0  0  0  0  0
   -0.8852    1.1795    0.0000 C   0  0  0  0  0  0  0  0  0
   -0.5496    1.9332    0.0000 C   0  0  0  0  0  0  0  0  0
    0.2708    2.0194    0.0000 C   0  0  0  0  0  0  0  0  0
    0.7558    1.3520    0.0000 C   0  0  0  0  0  0  0  0  0
    0.4202    0.5983    0.0000 C   0  0  0  0  0  0  0  0  0
    0.9051   -0.0691    0.0000 C   0  0  0  0  0  0  0  0  0
    1.7256    0.0171    0.0000 N   0  0  0  0  0  0  0  0  0
    2.1381    0.7316    0.0000 N   0  0  0  0  0  0  0  0  0
    2.9451    0.5601    0.0000 N   0  0  0  0  0  0  0  0  0
    3.0313   -0.2604    0.0000 C   0  0  0  0  0  0  0  0  0
    3.7458   -0.6729    0.0000 C   0  0  0  0  0  0  0  0  0
    3.7458   -1.4979    0.0000 O   0  0  0  0  0  0  0  0  0
    4.4603   -0.2604    0.0000 N   0  0  0  0  0  0  0  0  0
    5.1747   -0.6729    0.0000 C   0  0  0  0  0  0  0  0  0
    5.8892   -0.2604    0.0000 C   0  0  0  0  0  0  0  0  0
    6.6037   -0.6729    0.0000 C   0  0  0  0  0  0  0  0  0
    7.3181   -0.2604    0.0000 C   0  0  0  0  0  0  0  0  0
    8.0326   -0.6729    0.0000 N   0  0  0  0  0  0  0  0  0
    8.7471   -0.2604    0.0000 C   0  0  0  0  0  0  0  0  0
    9.4616   -0.6729    0.0000 C   0  0  0  0  0  0  0  0  0
    9.4616   -1.4979    0.0000 N   0  0  0  0  0  0  0  0  0
    8.7471   -1.9104    0.0000 C   0  0  0  0  0  0  0  0  0
    8.0326   -1.4979    0.0000 C   0  0  0  0  0  0  0  0  0
   10.1760   -1.9104    0.0000 C   0  0  0  0  0  0  0  0  0
   10.8905   -1.4979    0.0000 C   0  0  0  0  0  0  0  0  0
   11.6050   -1.9104    0.0000 C   0  0  0  0  0  0  0  0  0
   11.6050   -2.7354    0.0000 C   0  0  0  0  0  0  0  0  0
   10.8905   -3.1479    0.0000 C   0  0  0  0  0  0  0  0  0
   10.1760   -2.7354    0.0000 C   0  0  0  0  0  0  0  0  0
    9.4616   -3.1479    0.0000 O   0  0  0  0  0  0  0  0  0
    9.4616   -3.9729    0.0000 C   0  0  0  0  0  0  0  0  0
    2.2776   -0.5960    0.0000 C   0  0  0  0  0  0  0  0  0
    2.1061   -1.4029    0.0000 C   0  0  0  0  0  0  0  0  0
  1  2  1  0  0  0  0
  2  3  4  0  0  0  0
  2  7  4  0  0  0  0
  3  4  4  0  0  0  0
  4  5  4  0  0  0  0
  5  6  4  0  0  0  0
  6  7  4  0  0  0  0
  7  8  1  0  0  0  0
  8  9  1  0  0  0  0
  9 10  4  0  0  0  0
  9 34  4  0  0  0  0
 10 11  4  0  0  0  0
 11 12  4  0  0  0  0
 12 13  1  0  0  0  0
 12 34  4  0  0  0  0
 13 14  2  0  0  0  0
 13 15  1  0  0  0  0
 15 16  1  0  0  0  0
 16 17  1  0  0  0  0
 17 18  1  0  0  0  0
 18 19  1  0  0  0  0
 19 20  1  0  0  0  0
 20 21  1  0  0  0  0
 20 25  1  0  0  0  0
 21 22  1  0  0  0  0
 22 23  1  0  0  0  0
 23 24  1  0  0  0  0
 23 26  1  0  0  0  0
 24 25  1  0  0  0  0
 26 27  4  0  0  0  0
 26 31  4  0  0  0  0
 27 28  4  0  0  0  0
 28 29  4  0  0  0  0
 29 30  4  0  0  0  0
 30 31  4  0  0  0  0
 31 32  1  0  0  0  0
 32 33  1  0  0  0  0
 34 35  1  0  0  0  0
M  END
>  <Name_Molregno>
367094

>  <DOPAMINE D2>
7.21

>  <DOPAMINE D3>
7.49

>  <DOPAMINE D4>
7.04

$$$$
367112
  Marvin  02231216192D 0   1.00000     0.00000     0

 34 37  0  0  0  0  0  0  0  0999 V2000
    1.3161    3.5718    0.0000 F   0  0  0  0  0  0  0  0  0
    1.3161    2.7468    0.0000 C   0  0  0  0  0  0  0  0  0
    2.0306    2.3343    0.0000 N   0  0  0  0  0  0  0  0  0
    2.0306    1.5093    0.0000 C   0  0  0  0  0  0  0  0  0
    1.3161    1.0968    0.0000 C   0  0  0  0  0  0  0  0  0
    0.6017    1.5093    0.0000 C   0  0  0  0  0  0  0  0  0
    0.6017    2.3343    0.0000 C   0  0  0  0  0  0  0  0  0
    2.7451    1.0968    0.0000 C   0  0  0  0  0  0  0  0  0
    3.4596    1.5093    0.0000 C   0  0  0  0  0  0  0  0  0
    4.1740    1.0968    0.0000 C   0  0  0  0  0  0  0  0  0
    4.1740    0.2718    0.0000 C   0  0  0  0  0  0  0  0  0
    3.4596   -0.1407    0.0000 C   0  0  0  0  0  0  0  0  0
    2.7451    0.2718    0.0000 C   0  0  0  0  0  0  0  0  0
    4.8885   -0.1407    0.0000 C   0  0  0  0  0  0  0  0  0
    4.8885   -0.9657    0.0000 O   0  0  0  0  0  0  0  0  0
    5.6030    0.2718    0.0000 N   0  0  0  0  0  0  0  0  0
    6.3174   -0.1407    0.0000 C   0  0  0  0  0  0  0  0  0
    7.0319    0.2718    0.0000 C   0  0  0  0  0  0  0  0  0
    7.7464   -0.1407    0.0000 C   0  0  0  0  0  0  0  0  0
    8.4609    0.2718    0.0000 C   0  0  0  0  0  0  0  0  0
    9.1753   -0.1407    0.0000 N   0  0  0  0  0  0  0  0  0
    9.8898    0.2718    0.0000 C   0  0  0  0  0  0  0  0  0
   10.6043   -0.1407    0.0000 C   0  0  0  0  0  0  0  0  0
   10.6043   -0.9657    0.0000 N   0  0  0  0  0  0  0  0  0
    9.8898   -1.3782    0.0000 C   0  0  0  0  0  0  0  0  0
    9.1753   -0.9657    0.0000 C   0  0  0  0  0  0  0  0  0
   11.3187   -1.3782    0.0000 C   0  0  0  0  0  0  0  0  0
   12.0332   -0.9657    0.0000 C   0  0  0  0  0  0  0  0  0
   12.7477   -1.3782    0.0000 C   0  0  0  0  0  0  0  0  0
   12.7477   -2.2032    0.0000 C   0  0  0  0  0  0  0  0  0
   12.0332   -2.6157    0.0000 C   0  0  0  0  0  0  0  0  0
   11.3187   -2.2032    0.0000 C   0  0  0  0  0  0  0  0  0
   10.6043   -2.6157    0.0000 O   0  0  0  0  0  0  0  0  0
   10.6043   -3.4407    0.0000 C   0  0  0  0  0  0  0  0  0
  1  2  1  0  0  0  0
  2  3  4  0  0  0  0
  2  7  4  0  0  0  0
  3  4  4  0  0  0  0
  4  5  4  0  0  0  0
  4  8  1  0  0  0  0
  5  6  4  0  0  0  0
  6  7  4  0  0  0  0
  8  9  4  0  0  0  0
  8 13  4  0  0  0  0
  9 10  4  0  0  0  0
 10 11  4  0  0  0  0
 11 12  4  0  0  0  0
 11 14  1  0  0  0  0
 12 13  4  0  0  0  0
 14 15  2  0  0  0  0
 14 16  1  0  0  0  0
 16 17  1  0  0  0  0
 17 18  1  0  0  0  0
 18 19  1  0  0  0  0
 19 20  1  0  0  0  0
 20 21  1  0  0  0  0
 21 22  1  0  0  0  0
 21 26  1  0  0  0  0
 22 23  1  0  0  0  0
 23 24  1  0  0  0  0
 24 25  1  0  0  0  0
 24 27  1  0  0  0  0
 25 26  1  0  0  0  0
 27 28  4  0  0  0  0
 27 32  4  0  0  0  0
 28 29  4  0  0  0  0
 29 30  4  0  0  0  0
 30 31  4  0  0  0  0
 31 32  4  0  0  0  0
 32 33  1  0  0  0  0
 33 34  1  0  0  0  0
M  END
>  <Name_Molregno>
367112

>  <5-HT1A>
7.8

>  <DOPAMINE D2>
7.69

>  <DOPAMINE D3>
9.43

>  <DOPAMINE D4>
7.55

$$$$
367119
  Marvin  02231216192D 0   1.00000     0.00000     0

 34 37  0  0  0  0  0  0  0  0999 V2000
    0.3186    3.6840    0.0000 F   0  0  0  0  0  0  0  0  0
    1.0331    3.2715    0.0000 C   0  0  0  0  0  0  0  0  0
    1.7475    3.6840    0.0000 N   0  0  0  0  0  0  0  0  0
    2.4620    3.2715    0.0000 C   0  0  0  0  0  0  0  0  0
    2.4620    2.4465    0.0000 C   0  0  0  0  0  0  0  0  0
    1.7475    2.0340    0.0000 C   0  0  0  0  0  0  0  0  0
    1.0331    2.4465    0.0000 C   0  0  0  0  0  0  0  0  0
    3.1765    2.0340    0.0000 C   0  0  0  0  0  0  0  0  0
    3.8909    2.4465    0.0000 C   0  0  0  0  0  0  0  0  0
    4.6054    2.0340    0.0000 C   0  0  0  0  0  0  0  0  0
    4.6054    1.2090    0.0000 C   0  0  0  0  0  0  0  0  0
    3.8909    0.7965    0.0000 C   0  0  0  0  0  0  0  0  0
    3.1765    1.2090    0.0000 C   0  0  0  0  0  0  0  0  0
    5.3199    0.7965    0.0000 C   0  0  0  0  0  0  0  0  0
    5.3199   -0.0285    0.0000 O   0  0  0  0  0  0  0  0  0
    6.0343    1.2090    0.0000 N   0  0  0  0  0  0  0  0  0
    6.7488    0.7965    0.0000 C   0  0  0  0  0  0  0  0  0
    7.4633    1.2090    0.0000 C   0  0  0  0  0  0  0  0  0
    8.1778    0.7965    0.0000 C   0  0  0  0  0  0  0  0  0
    8.8922    1.2090    0.0000 C   0  0  0  0  0  0  0  0  0
    9.6067    0.7965    0.0000 N   0  0  0  0  0  0  0  0  0
   10.3212    1.2090    0.0000 C   0  0  0  0  0  0  0  0  0
   11.0356    0.7965    0.0000 C   0  0  0  0  0  0  0  0  0
   11.0356   -0.0285    0.0000 N   0  0  0  0  0  0  0  0  0
   10.3212   -0.4410    0.0000 C   0  0  0  0  0  0  0  0  0
    9.6067   -0.0285    0.0000 C   0  0  0  0  0  0  0  0  0
   11.7501   -0.4410    0.0000 C   0  0  0  0  0  0  0  0  0
   12.4646   -0.0285    0.0000 C   0  0  0  0  0  0  0  0  0
   13.1791   -0.4410    0.0000 C   0  0  0  0  0  0  0  0  0
   13.1791   -1.2660    0.0000 C   0  0  0  0  0  0  0  0  0
   12.4646   -1.6785    0.0000 C   0  0  0  0  0  0  0  0  0
   11.7501   -1.2660    0.0000 C   0  0  0  0  0  0  0  0  0
   11.0356   -1.6785    0.0000 O   0  0  0  0  0  0  0  0  0
   11.0356   -2.5035    0.0000 C   0  0  0  0  0  0  0  0  0
  1  2  1  0  0  0  0
  2  3  4  0  0  0  0
  2  7  4  0  0  0  0
  3  4  4  0  0  0  0
  4  5  4  0  0  0  0
  5  6  4  0  0  0  0
  5  8  1  0  0  0  0
  6  7  4  0  0  0  0
  8  9  4  0  0  0  0
  8 13  4  0  0  0  0
  9 10  4  0  0  0  0
 10 11  4  0  0  0  0
 11 12  4  0  0  0  0
 11 14  1  0  0  0  0
 12 13  4  0  0  0  0
 14 15  2  0  0  0  0
 14 16  1  0  0  0  0
 16 17  1  0  0  0  0
 17 18  1  0  0  0  0
 18 19  1  0  0  0  0
 19 20  1  0  0  0  0
 20 21  1  0  0  0  0
 21 22  1  0  0  0  0
 21 26  1  0  0  0  0
 22 23  1  0  0  0  0
 23 24  1  0  0  0  0
 24 25  1  0  0  0  0
 24 27  1  0  0  0  0
 25 26  1  0  0  0  0
 27 28  4  0  0  0  0
 27 32  4  0  0  0  0
 28 29  4  0  0  0  0
 29 30  4  0  0  0  0
 30 31  4  0  0  0  0
 31 32  4  0  0  0  0
 32 33  1  0  0  0  0
 33 34  1  0  0  0  0
M  END
>  <Name_Molregno>
367119

>  <5-HT1A>
7.68

>  <DOPAMINE D2>
7.87

>  <DOPAMINE D3>
9.35

>  <DOPAMINE D4>
7.47

$$$$
382415
  Marvin  02231216192D 0   1.00000     0.00000     0

 18 19  0  0  0  0  0  0  0  0999 V2000
   -0.7360    1.4792    0.0000 S   0  0  0  0  0  0  0  0  0
   -0.9909    0.6946    0.0000 C   0  0  0  0  0  0  0  0  0
   -1.8159    0.6946    0.0000 C   0  0  0  0  0  0  0  0  0
   -2.0709    1.4792    0.0000 N   0  0  0  0  0  0  0  0  0
   -1.4034    1.9642    0.0000 C   0  0  0  0  0  0  0  0  0
   -1.4034    2.7892    0.0000 C   0  0  0  0  0  0  0  0  0
   -0.6890    3.2017    0.0000 F   0  0  0  0  0  0  0  0  0
   -2.3008    0.0272    0.0000 C   0  0  0  0  0  0  0  0  0
   -2.7858   -0.6403    0.0000 C   0  0  0  0  0  0  0  0  0
   -3.2707   -1.3077    0.0000 C   0  0  0  0  0  0  0  0  0
   -2.9351   -2.0614    0.0000 C   0  0  0  0  0  0  0  0  0
   -3.4201   -2.7288    0.0000 C   0  0  0  0  0  0  0  0  0
   -4.2405   -2.6426    0.0000 C   0  0  0  0  0  0  0  0  0
   -4.5761   -1.8889    0.0000 C   0  0  0  0  0  0  0  0  0
   -5.3966   -1.8027    0.0000 F   0  0  0  0  0  0  0  0  0
   -4.0912   -1.2215    0.0000 C   0  0  0  0  0  0  0  0  0
   -3.0845   -3.4825    0.0000 C   0  0  0  0  0  0  0  0  0
   -2.7489   -4.2362    0.0000 N   0  0  0  0  0  0  0  0  0
  1  2  4  0  0  0  0
  1  5  4  0  0  0  0
  2  3  4  0  0  0  0
  3  4  4  0  0  0  0
  3  8  1  0  0  0  0
  4  5  4  0  0  0  0
  5  6  1  0  0  0  0
  6  7  1  0  0  0  0
  8  9  3  0  0  0  0
  9 10  1  0  0  0  0
 10 11  4  0  0  0  0
 10 16  4  0  0  0  0
 11 12  4  0  0  0  0
 12 13  4  0  0  0  0
 12 17  1  0  0  0  0
 13 14  4  0  0  0  0
 14 15  1  0  0  0  0
 14 16  4  0  0  0  0
 17 18  3  0  0  0  0
M  END
>  <Name_Molregno>
382415

>  <5-HT1A>
5

>  <5-HT1B>
5

>  <5-HT1D>
5

>  <5-HT1E>
5

>  <5-HT2A>
5

>  <5-HT2C>
5

>  <5-HT3>
5

>  <5-HT5>
5

>  <5-HT6>
5

>  <5-HT7>
5

>  <Alpha-1A>
5

>  <Alpha-1B>
5

>  <Alpha-2A>
5

>  <Alpha-2B>
5

>  <Alpha-2C>
5

>  <Beta-1>
5

>  <Beta-2>
5

>  <DOPAMINE D1>
5

>  <DOPAMINE D2>
5

>  <DOPAMINE D3>
5

>  <DOPAMINE D4>
5

>  <DOPAMINE D5>
5

>  <Dopamine transporter>
5

>  <HISTAMINE H1>
5

>  <HISTAMINE H2>
5

>  <HISTAMINE H3>
5

>  <HISTAMINE H4>
5

>  <Muscarinic acetylcholine receptor M1>
5

>  <Muscarinic acetylcholine receptor M2>
5

>  <Muscarinic acetylcholine receptor M3>
5

>  <Muscarinic acetylcholine receptor M4>
5

>  <Muscarinic acetylcholine receptor M5>
5

>  <Norepinephrine transporter>
5

>  <Serotonin transporter>
5

$$$$
388328
  Marvin  02231216192D 0   1.00000     0.00000     0

 34 37  0  0  1  0  0  0  0  0999 V2000
   -0.1300   -0.0292    0.0000 Cl  0  0  0  0  0  0  0  0  0
   -0.1300   -0.8542    0.0000 C   0  0  0  0  0  0  0  0  0
    0.5845   -1.2667    0.0000 C   0  0  0  0  0  0  0  0  0
    1.2990   -0.8542    0.0000 N   0  0  0  0  0  0  0  0  0
    1.2990   -0.0292    0.0000 C   0  0  0  0  0  0  0  0  0
    2.0134    0.3833    0.0000 C   0  0  0  0  0  0  0  0  0
    2.7279   -0.0292    0.0000 N   0  0  0  0  0  0  0  0  0
    2.7279   -0.8542    0.0000 C   0  0  0  0  0  0  0  0  0
    2.0134   -1.2667    0.0000 C   0  0  0  0  0  0  0  0  0
    3.4424    0.3833    0.0000 C   0  0  0  0  0  0  0  0  0
    4.1568   -0.0292    0.0000 C   0  0  0  0  0  0  0  0  0
    4.1568   -0.8542    0.0000 O   0  0  0  0  0  0  0  0  0
    4.8713    0.3833    0.0000 C   0  0  0  0  0  0  0  0  0
    5.5858   -0.0292    0.0000 C   0  0  0  0  0  0  0  0  0
    6.3003    0.3833    0.0000 N   0  0  0  0  0  0  0  0  0
    7.0147   -0.0292    0.0000 C   0  0  0  0  0  0  0  0  0
    7.0147   -0.8542    0.0000 O   0  0  0  0  0  0  0  0  0
    7.7292    0.3833    0.0000 C   0  0  0  0  0  0  0  0  0
    7.7292    1.2083    0.0000 C   0  0  0  0  0  0  0  0  0
    8.4437    1.6208    0.0000 C   0  0  0  0  0  0  0  0  0
    9.1581    1.2083    0.0000 C   0  0  0  0  0  0  0  0  0
    9.1581    0.3833    0.0000 C   0  0  0  0  0  0  0  0  0
    8.4437   -0.0292    0.0000 C   0  0  0  0  0  0  0  0  0
    9.8726    1.6208    0.0000 C   0  0  0  0  0  0  0  0  0
    9.8726    2.4458    0.0000 N   0  0  0  0  0  0  0  0  0
   10.5871    2.8583    0.0000 C   0  0  0  0  0  0  0  0  0
   11.3016    2.4458    0.0000 C   0  0  0  0  0  0  0  0  0
   11.3016    1.6208    0.0000 C   0  0  0  0  0  0  0  0  0
   10.5871    1.2083    0.0000 C   0  0  0  0  0  0  0  0  0
    0.5845   -2.0917    0.0000 C   0  0  0  0  0  0  0  0  0
   -0.1300   -2.5042    0.0000 C   0  0  0  0  0  0  0  0  0
   -0.8444   -2.0917    0.0000 C   0  0  0  0  0  0  0  0  0
   -0.8444   -1.2667    0.0000 C   0  0  0  0  0  0  0  0  0
   -1.5589   -0.8542    0.0000 Cl  0  0  0  0  0  0  0  0  0
  1  2  1  0  0  0  0
  2  3  4  0  0  0  0
  2 33  4  0  0  0  0
  3  4  1  0  0  0  0
  3 30  4  0  0  0  0
  4  5  1  0  0  0  0
  4  9  1  0  0  0  0
  5  6  1  0  0  0  0
  6  7  1  0  0  0  0
  7  8  1  0  0  0  0
  7 10  1  0  0  0  0
  8  9  1  0  0  0  0
 10 11  1  0  0  0  0
 11 12  1  0  0  0  0
 11 13  1  0  0  0  0
 13 14  1  0  0  0  0
 14 15  1  0  0  0  0
 15 16  1  0  0  0  0
 16 17  2  0  0  0  0
 16 18  1  0  0  0  0
 18 19  4  0  0  0  0
 18 23  4  0  0  0  0
 19 20  4  0  0  0  0
 20 21  4  0  0  0  0
 21 22  4  0  0  0  0
 21 24  1  0  0  0  0
 22 23  4  0  0  0  0
 24 25  4  0  0  0  0
 24 29  4  0  0  0  0
 25 26  4  0  0  0  0
 26 27  4  0  0  0  0
 27 28  4  0  0  0  0
 28 29  4  0  0  0  0
 30 31  4  0  0  0  0
 31 32  4  0  0  0  0
 32 33  4  0  0  0  0
 33 34  1  0  0  0  0
M  END
>  <Name_Molregno>
388328

>  <5-HT1A>
7.46

>  <5-HT2A>
7.37

>  <5-HT2C>
6.94

>  <DOPAMINE D2>
6.57

>  <DOPAMINE D3>
8.52

>  <DOPAMINE D4>
5.34

$$$$
388332
  Marvin  02231216192D 0   1.00000     0.00000     0

 34 37  0  0  1  0  0  0  0  0999 V2000
   -9.9552    0.3013    0.0000 O   0  0  0  0  0  0  0  0  0
  -10.6697   -0.1112    0.0000 C   0  0  0  0  0  0  0  0  0
   -9.9552    1.1263    0.0000 C   0  0  0  0  0  0  0  0  0
  -10.6697    1.5388    0.0000 C   0  0  0  0  0  0  0  0  0
  -10.6697    2.3638    0.0000 C   0  0  0  0  0  0  0  0  0
   -9.9552    2.7763    0.0000 C   0  0  0  0  0  0  0  0  0
   -9.2407    2.3638    0.0000 C   0  0  0  0  0  0  0  0  0
   -9.2407    1.5388    0.0000 C   0  0  0  0  0  0  0  0  0
   -8.5263    1.1263    0.0000 N   0  0  0  0  0  0  0  0  0
   -7.8118    1.5388    0.0000 C   0  0  0  0  0  0  0  0  0
   -7.0973    1.1263    0.0000 C   0  0  0  0  0  0  0  0  0
   -7.0973    0.3013    0.0000 N   0  0  0  0  0  0  0  0  0
   -7.8118   -0.1112    0.0000 C   0  0  0  0  0  0  0  0  0
   -8.5263    0.3013    0.0000 C   0  0  0  0  0  0  0  0  0
   -6.3828   -0.1112    0.0000 C   0  0  0  0  0  0  0  0  0
   -5.6684    0.3013    0.0000 C   0  0  0  0  0  0  0  0  0
   -5.6684    1.1263    0.0000 O   0  0  0  0  0  0  0  0  0
   -4.9539   -0.1112    0.0000 C   0  0  0  0  0  0  0  0  0
   -4.2394    0.3013    0.0000 C   0  0  0  0  0  0  0  0  0
   -3.5250   -0.1112    0.0000 N   0  0  0  0  0  0  0  0  0
   -2.8105    0.3013    0.0000 C   0  0  0  0  0  0  0  0  0
   -2.8105    1.1263    0.0000 O   0  0  0  0  0  0  0  0  0
   -2.0960   -0.1112    0.0000 C   0  0  0  0  0  0  0  0  0
   -1.3815    0.3013    0.0000 C   0  0  0  0  0  0  0  0  0
   -0.6671   -0.1112    0.0000 C   0  0  0  0  0  0  0  0  0
   -0.6671   -0.9362    0.0000 C   0  0  0  0  0  0  0  0  0
   -1.3815   -1.3487    0.0000 C   0  0  0  0  0  0  0  0  0
   -2.0960   -0.9362    0.0000 C   0  0  0  0  0  0  0  0  0
    0.0474   -1.3487    0.0000 C   0  0  0  0  0  0  0  0  0
    0.7619   -0.9362    0.0000 N   0  0  0  0  0  0  0  0  0
    1.4763   -1.3487    0.0000 C   0  0  0  0  0  0  0  0  0
    1.4763   -2.1737    0.0000 C   0  0  0  0  0  0  0  0  0
    0.7619   -2.5862    0.0000 C   0  0  0  0  0  0  0  0  0
    0.0474   -2.1737    0.0000 C   0  0  0  0  0  0  0  0  0
  1  2  1  0  0  0  0
  1  3  1  0  0  0  0
  3  4  4  0  0  0  0
  3  8  4  0  0  0  0
  4  5  4  0  0  0  0
  5  6  4  0  0  0  0
  6  7  4  0  0  0  0
  7  8  4  0  0  0  0
  8  9  1  0  0  0  0
  9 10  1  0  0  0  0
  9 14  1  0  0  0  0
 10 11  1  0  0  0  0
 11 12  1  0  0  0  0
 12 13  1  0  0  0  0
 12 15  1  0  0  0  0
 13 14  1  0  0  0  0
 15 16  1  0  0  0  0
 16 17  1  0  0  0  0
 16 18  1  0  0  0  0
 18 19  1  0  0  0  0
 19 20  1  0  0  0  0
 20 21  1  0  0  0  0
 21 22  2  0  0  0  0
 21 23  1  0  0  0  0
 23 24  4  0  0  0  0
 23 28  4  0  0  0  0
 24 25  4  0  0  0  0
 25 26  4  0  0  0  0
 26 27  4  0  0  0  0
 26 29  1  0  0  0  0
 27 28  4  0  0  0  0
 29 30  4  0  0  0  0
 29 34  4  0  0  0  0
 30 31  4  0  0  0  0
 31 32  4  0  0  0  0
 32 33  4  0  0  0  0
 33 34  4  0  0  0  0
M  END
>  <Name_Molregno>
388332

>  <5-HT1A>
7.44

>  <5-HT2A>
6.16

>  <5-HT2C>
5.4

>  <DOPAMINE D2>
6.55

>  <DOPAMINE D3>
8.55

>  <DOPAMINE D4>
5.83

$$$$
388336
  Marvin  02231216192D 0   1.00000     0.00000     0

 35 39  0  0  1  0  0  0  0  0999 V2000
   -8.3216   -2.2511    0.0000 O   0  0  0  0  0  0  0  0  0
   -8.3216   -3.0761    0.0000 C   0  0  0  0  0  0  0  0  0
   -9.0361   -1.8386    0.0000 C   0  0  0  0  0  0  0  0  0
   -9.7506   -2.2511    0.0000 C   0  0  0  0  0  0  0  0  0
  -10.4651   -1.8386    0.0000 C   0  0  0  0  0  0  0  0  0
  -10.4651   -1.0136    0.0000 C   0  0  0  0  0  0  0  0  0
   -9.7506   -0.6011    0.0000 C   0  0  0  0  0  0  0  0  0
   -9.0361   -1.0136    0.0000 C   0  0  0  0  0  0  0  0  0
   -8.3216   -0.6011    0.0000 N   0  0  0  0  0  0  0  0  0
   -8.3216    0.2239    0.0000 C   0  0  0  0  0  0  0  0  0
   -7.6072    0.6364    0.0000 C   0  0  0  0  0  0  0  0  0
   -6.8927    0.2239    0.0000 N   0  0  0  0  0  0  0  0  0
   -6.8927   -0.6011    0.0000 C   0  0  0  0  0  0  0  0  0
   -7.6072   -1.0136    0.0000 C   0  0  0  0  0  0  0  0  0
   -6.1782    0.6364    0.0000 C   0  0  0  0  0  0  0  0  0
   -5.4638    0.2239    0.0000 C   0  0  0  0  0  0  0  0  0
   -5.4638   -0.6011    0.0000 O   0  0  0  0  0  0  0  0  0
   -4.7493    0.6364    0.0000 C   0  0  0  0  0  0  0  0  0
   -4.0348    0.2239    0.0000 C   0  0  0  0  0  0  0  0  0
   -3.3203    0.6364    0.0000 N   0  0  0  0  0  0  0  0  0
   -2.6059    0.2239    0.0000 C   0  0  0  0  0  0  0  0  0
   -2.6059   -0.6011    0.0000 O   0  0  0  0  0  0  0  0  0
   -1.8914    0.6364    0.0000 C   0  0  0  0  0  0  0  0  0
   -1.1769    0.2239    0.0000 C   0  0  0  0  0  0  0  0  0
   -0.4625    0.6364    0.0000 C   0  0  0  0  0  0  0  0  0
    0.3222    0.3815    0.0000 C   0  0  0  0  0  0  0  0  0
    0.8071    1.0489    0.0000 C   0  0  0  0  0  0  0  0  0
    0.3222    1.7163    0.0000 C   0  0  0  0  0  0  0  0  0
   -0.4625    1.4614    0.0000 C   0  0  0  0  0  0  0  0  0
   -1.1769    1.8739    0.0000 C   0  0  0  0  0  0  0  0  0
   -1.8914    1.4614    0.0000 C   0  0  0  0  0  0  0  0  0
    0.6577    2.4700    0.0000 C   0  0  0  0  0  0  0  0  0
    1.4782    2.5562    0.0000 C   0  0  0  0  0  0  0  0  0
    1.9631    1.8888    0.0000 C   0  0  0  0  0  0  0  0  0
    1.6276    1.1351    0.0000 C   0  0  0  0  0  0  0  0  0
  1  2  1  0  0  0  0
  1  3  1  0  0  0  0
  3  4  4  0  0  0  0
  3  8  4  0  0  0  0
  4  5  4  0  0  0  0
  5  6  4  0  0  0  0
  6  7  4  0  0  0  0
  7  8  4  0  0  0  0
  8  9  1  0  0  0  0
  9 10  1  0  0  0  0
  9 14  1  0  0  0  0
 10 11  1  0  0  0  0
 11 12  1  0  0  0  0
 12 13  1  0  0  0  0
 12 15  1  0  0  0  0
 13 14  1  0  0  0  0
 15 16  1  0  0  0  0
 16 17  1  0  0  0  0
 16 18  1  0  0  0  0
 18 19  1  0  0  0  0
 19 20  1  0  0  0  0
 20 21  1  0  0  0  0
 21 22  2  0  0  0  0
 21 23  1  0  0  0  0
 23 24  4  0  0  0  0
 23 31  4  0  0  0  0
 24 25  4  0  0  0  0
 25 26  1  0  0  0  0
 25 29  4  0  0  0  0
 26 27  1  0  0  0  0
 27 28  4  0  0  0  0
 27 35  4  0  0  0  0
 28 29  1  0  0  0  0
 28 32  4  0  0  0  0
 29 30  4  0  0  0  0
 30 31  4  0  0  0  0
 32 33  4  0  0  0  0
 33 34  4  0  0  0  0
 34 35  4  0  0  0  0
M  END
>  <Name_Molregno>
388336

>  <DOPAMINE D2>
6.6

>  <DOPAMINE D3>
8.74

>  <DOPAMINE D4>
5.91

$$$$
388343
  Marvin  02231216192D 0   1.00000     0.00000     0

 34 38  0  0  1  0  0  0  0  0999 V2000
    4.7092    4.0677    0.0000 Cl  0  0  0  0  0  0  0  0  0
    3.9947    3.6552    0.0000 C   0  0  0  0  0  0  0  0  0
    3.9947    2.8302    0.0000 C   0  0  0  0  0  0  0  0  0
    4.7092    2.4177    0.0000 N   0  0  0  0  0  0  0  0  0
    5.4236    2.8302    0.0000 C   0  0  0  0  0  0  0  0  0
    6.1381    2.4177    0.0000 C   0  0  0  0  0  0  0  0  0
    6.1381    1.5927    0.0000 N   0  0  0  0  0  0  0  0  0
    5.4236    1.1802    0.0000 C   0  0  0  0  0  0  0  0  0
    4.7092    1.5927    0.0000 C   0  0  0  0  0  0  0  0  0
    6.8526    1.1802    0.0000 C   0  0  0  0  0  0  0  0  0
    6.8526    0.3552    0.0000 C   0  0  0  0  0  0  0  0  0
    7.2651   -0.3592    0.0000 C   0  0  0  0  0  0  0  0  0
    6.4401   -0.3592    0.0000 C   0  0  0  0  0  0  0  0  0
    5.7256   -0.7717    0.0000 C   0  0  0  0  0  0  0  0  0
    5.7256   -1.5967    0.0000 N   0  0  0  0  0  0  0  0  0
    5.0111   -2.0092    0.0000 C   0  0  0  0  0  0  0  0  0
    4.2967   -1.5967    0.0000 O   0  0  0  0  0  0  0  0  0
    5.0111   -2.8342    0.0000 C   0  0  0  0  0  0  0  0  0
    5.7256   -3.2467    0.0000 C   0  0  0  0  0  0  0  0  0
    5.7256   -4.0717    0.0000 C   0  0  0  0  0  0  0  0  0
    5.0111   -4.4842    0.0000 C   0  0  0  0  0  0  0  0  0
    4.2967   -4.0717    0.0000 C   0  0  0  0  0  0  0  0  0
    4.2967   -3.2467    0.0000 C   0  0  0  0  0  0  0  0  0
    5.0111   -5.3092    0.0000 C   0  0  0  0  0  0  0  0  0
    5.7256   -5.7217    0.0000 N   0  0  0  0  0  0  0  0  0
    5.7256   -6.5467    0.0000 C   0  0  0  0  0  0  0  0  0
    5.0111   -6.9592    0.0000 C   0  0  0  0  0  0  0  0  0
    4.2967   -6.5467    0.0000 C   0  0  0  0  0  0  0  0  0
    4.2967   -5.7217    0.0000 C   0  0  0  0  0  0  0  0  0
    3.2802    2.4177    0.0000 C   0  0  0  0  0  0  0  0  0
    2.5658    2.8302    0.0000 C   0  0  0  0  0  0  0  0  0
    2.5658    3.6552    0.0000 C   0  0  0  0  0  0  0  0  0
    3.2802    4.0677    0.0000 C   0  0  0  0  0  0  0  0  0
    3.2802    4.8927    0.0000 Cl  0  0  0  0  0  0  0  0  0
  1  2  1  0  0  0  0
  2  3  4  0  0  0  0
  2 33  4  0  0  0  0
  3  4  1  0  0  0  0
  3 30  4  0  0  0  0
  4  5  1  0  0  0  0
  4  9  1  0  0  0  0
  5  6  1  0  0  0  0
  6  7  1  0  0  0  0
  7  8  1  0  0  0  0
  7 10  1  0  0  0  0
  8  9  1  0  0  0  0
 10 11  1  0  0  0  0
 11 12  1  0  0  0  0
 11 13  1  0  0  0  0
 12 13  1  0  0  0  0
 13 14  1  0  0  0  0
 14 15  1  0  0  0  0
 15 16  1  0  0  0  0
 16 17  2  0  0  0  0
 16 18  1  0  0  0  0
 18 19  4  0  0  0  0
 18 23  4  0  0  0  0
 19 20  4  0  0  0  0
 20 21  4  0  0  0  0
 21 22  4  0  0  0  0
 21 24  1  0  0  0  0
 22 23  4  0  0  0  0
 24 25  4  0  0  0  0
 24 29  4  0  0  0  0
 25 26  4  0  0  0  0
 26 27  4  0  0  0  0
 27 28  4  0  0  0  0
 28 29  4  0  0  0  0
 30 31  4  0  0  0  0
 31 32  4  0  0  0  0
 32 33  4  0  0  0  0
 33 34  1  0  0  0  0
M  END
>  <Name_Molregno>
388343

>  <5-HT1A>
6.62

>  <5-HT2A>
6.69

>  <5-HT2C>
6.65

>  <DOPAMINE D2>
6.63

>  <DOPAMINE D3>
7.9

>  <DOPAMINE D4>
5.84

$$$$
389011
  Marvin  02231216192D 0   1.00000     0.00000     0

 25 26  0  0  1  0  0  0  0  0999 V2000
   -2.9244    1.8604    0.0000 S   0  0  0  0  0  0  0  0  0
   -3.7494    1.8604    0.0000 O   0  0  0  0  0  0  0  0  0
   -2.0994    1.8604    0.0000 O   0  0  0  0  0  0  0  0  0
   -2.9244    2.6854    0.0000 C   0  0  0  0  0  0  0  0  0
   -3.6388    3.0979    0.0000 C   0  0  0  0  0  0  0  0  0
   -2.9244    1.0354    0.0000 C   0  0  0  0  0  0  0  0  0
   -2.2099    0.6229    0.0000 C   0  0  0  0  0  0  0  0  0
   -2.2099   -0.2021    0.0000 C   0  0  0  0  0  0  0  0  0
   -1.4954   -0.6146    0.0000 C   0  0  0  0  0  0  0  0  0
   -0.7810   -0.2021    0.0000 O   0  0  0  0  0  0  0  0  0
   -1.4954   -1.4396    0.0000 N   0  0  0  0  0  0  0  0  0
   -0.7810   -1.8521    0.0000 C   0  0  0  0  0  0  0  0  0
   -0.7810   -2.6771    0.0000 C   0  0  0  0  0  0  0  0  0
   -0.1135   -3.1620    0.0000 N   0  0  0  0  0  0  0  0  0
   -0.3685   -3.9466    0.0000 C   0  0  0  0  0  0  0  0  0
   -1.1935   -3.9466    0.0000 C   0  0  0  0  0  0  0  0  0
   -1.4484   -3.1620    0.0000 C   0  0  0  0  0  0  0  0  0
    0.6711   -2.9071    0.0000 C   0  0  0  0  0  0  0  0  0
    1.2842   -3.4591    0.0000 C   0  0  0  0  0  0  0  0  0
   -2.9244   -0.6146    0.0000 C   0  0  0  0  0  0  0  0  0
   -2.9244   -1.4396    0.0000 O   0  0  0  0  0  0  0  0  0
   -3.6388   -1.8521    0.0000 C   0  0  0  0  0  0  0  0  0
   -3.6388   -0.2021    0.0000 C   0  0  0  0  0  0  0  0  0
   -3.6388    0.6229    0.0000 C   0  0  0  0  0  0  0  0  0
   -4.3533    1.0354    0.0000 N   0  0  0  0  0  0  0  0  0
  1  2  2  0  0  0  0
  1  3  2  0  0  0  0
  1  4  1  0  0  0  0
  1  6  1  0  0  0  0
  4  5  1  0  0  0  0
  6  7  4  0  0  0  0
  6 24  4  0  0  0  0
  7  8  4  0  0  0  0
  8  9  1  0  0  0  0
  8 20  4  0  0  0  0
  9 10  2  0  0  0  0
  9 11  1  0  0  0  0
 11 12  1  0  0  0  0
 12 13  1  0  0  0  0
 13 14  1  0  0  0  0
 13 17  1  0  0  0  0
 14 15  1  0  0  0  0
 14 18  1  0  0  0  0
 15 16  1  0  0  0  0
 16 17  1  0  0  0  0
 18 19  1  0  0  0  0
 20 21  1  0  0  0  0
 20 23  4  0  0  0  0
 21 22  1  0  0  0  0
 23 24  4  0  0  0  0
 24 25  1  0  0  0  0
M  END
>  <Name_Molregno>
389011

>  <5-HT1A>
5

>  <5-HT1B>
5.76

>  <5-HT1D>
5.87

>  <5-HT1E>
5

>  <5-HT2A>
5.64

>  <5-HT2C>
5

>  <5-HT3>
5

>  <5-HT5>
5

>  <5-HT6>
5.38

>  <5-HT7>
7.47

>  <Alpha-1A>
5

>  <Alpha-1B>
5

>  <Alpha-2A>
5.95

>  <Alpha-2C>
5.81

>  <Beta-1>
5

>  <Beta-2>
5

>  <DOPAMINE D1>
5

>  <DOPAMINE D2>
8.71

>  <DOPAMINE D3>
8.51

>  <DOPAMINE D4>
5.63

>  <DOPAMINE D5>
5

>  <Dopamine transporter>
5

>  <HISTAMINE H1>
5

>  <HISTAMINE H2>
5

>  <HISTAMINE H4>
5

>  <Muscarinic acetylcholine receptor M1>
5

>  <Muscarinic acetylcholine receptor M2>
5

>  <Muscarinic acetylcholine receptor M3>
5

>  <Muscarinic acetylcholine receptor M4>
5

>  <Muscarinic acetylcholine receptor M5>
5

>  <Norepinephrine transporter>
5

>  <Serotonin transporter>
5

$$$$
390342
  Marvin  02231216192D 0   1.00000     0.00000     0

 39 43  0  0  1  0  0  0  0  0999 V2000
    7.7131    4.6296    0.0000 F   0  0  0  0  0  0  0  0  0
    7.7131    3.8046    0.0000 C   0  0  0  0  0  0  0  0  0
    8.4275    3.3921    0.0000 C   0  0  0  0  0  0  0  0  0
    8.4275    2.5671    0.0000 C   0  0  0  0  0  0  0  0  0
    7.7131    2.1546    0.0000 C   0  0  0  0  0  0  0  0  0
    6.9986    2.5671    0.0000 C   0  0  0  0  0  0  0  0  0
    6.9986    3.3921    0.0000 C   0  0  0  0  0  0  0  0  0
    7.7131    1.3296    0.0000 C   0  0  0  0  0  0  0  0  0
    6.9986    0.9171    0.0000 N   0  0  0  0  0  0  0  0  0
    6.9986    0.0921    0.0000 C   0  0  0  0  0  0  0  0  0
    6.2841   -0.3204    0.0000 C   0  0  0  0  0  0  0  0  0
    5.5696    0.0921    0.0000 N   0  0  0  0  0  0  0  0  0
    5.5696    0.9171    0.0000 C   0  0  0  0  0  0  0  0  0
    6.2841    1.3296    0.0000 C   0  0  0  0  0  0  0  0  0
    4.8552   -0.3204    0.0000 C   0  0  0  0  0  0  0  0  0
    4.8552   -1.1454    0.0000 C   0  0  0  0  0  0  0  0  0
    4.1407   -1.5579    0.0000 C   0  0  0  0  0  0  0  0  0
    4.1407   -2.3829    0.0000 C   0  0  0  0  0  0  0  0  0
    4.8081   -2.8678    0.0000 O   0  0  0  0  0  0  0  0  0
    4.5532   -3.6524    0.0000 N   0  0  0  0  0  0  0  0  0
    3.7282   -3.6524    0.0000 C   0  0  0  0  0  0  0  0  0
    3.4733   -2.8678    0.0000 C   0  0  0  0  0  0  0  0  0
    3.2433   -4.3199    0.0000 C   0  0  0  0  0  0  0  0  0
    3.5788   -5.0735    0.0000 C   0  0  0  0  0  0  0  0  0
    3.0939   -5.7410    0.0000 C   0  0  0  0  0  0  0  0  0
    3.4295   -6.4947    0.0000 O   0  0  0  0  0  0  0  0  0
    2.9446   -7.1621    0.0000 C   0  0  0  0  0  0  0  0  0
    2.2734   -5.6548    0.0000 C   0  0  0  0  0  0  0  0  0
    1.7885   -6.3222    0.0000 O   0  0  0  0  0  0  0  0  0
    2.1241   -7.0759    0.0000 C   0  0  0  0  0  0  0  0  0
    1.9379   -4.9011    0.0000 C   0  0  0  0  0  0  0  0  0
    2.4228   -4.2336    0.0000 C   0  0  0  0  0  0  0  0  0
    8.4275    0.9171    0.0000 C   0  0  0  0  0  0  0  0  0
    9.1420    1.3296    0.0000 C   0  0  0  0  0  0  0  0  0
    9.8565    0.9171    0.0000 C   0  0  0  0  0  0  0  0  0
    9.8565    0.0921    0.0000 C   0  0  0  0  0  0  0  0  0
   10.5709   -0.3204    0.0000 F   0  0  0  0  0  0  0  0  0
    9.1420   -0.3204    0.0000 C   0  0  0  0  0  0  0  0  0
    8.4275    0.0921    0.0000 C   0  0  0  0  0  0  0  0  0
  1  2  1  0  0  0  0
  2  3  4  0  0  0  0
  2  7  4  0  0  0  0
  3  4  4  0  0  0  0
  4  5  4  0  0  0  0
  5  6  4  0  0  0  0
  5  8  1  0  0  0  0
  6  7  4  0  0  0  0
  8  9  1  0  0  0  0
  8 33  1  0  0  0  0
  9 10  1  0  0  0  0
  9 14  1  0  0  0  0
 10 11  1  0  0  0  0
 11 12  1  0  0  0  0
 12 13  1  0  0  0  0
 12 15  1  0  0  0  0
 13 14  1  0  0  0  0
 15 16  1  0  0  0  0
 16 17  1  0  0  0  0
 17 18  1  0  0  0  0
 18 19  1  0  0  0  0
 18 22  1  0  0  0  0
 19 20  1  0  0  0  0
 20 21  2  0  0  0  0
 21 22  1  0  0  0  0
 21 23  1  0  0  0  0
 23 24  4  0  0  0  0
 23 32  4  0  0  0  0
 24 25  4  0  0  0  0
 25 26  1  0  0  0  0
 25 28  4  0  0  0  0
 26 27  1  0  0  0  0
 28 29  1  0  0  0  0
 28 31  4  0  0  0  0
 29 30  1  0  0  0  0
 31 32  4  0  0  0  0
 33 34  4  0  0  0  0
 33 39  4  0  0  0  0
 34 35  4  0  0  0  0
 35 36  4  0  0  0  0
 36 37  1  0  0  0  0
 36 38  4  0  0  0  0
 38 39  4  0  0  0  0
M  END
>  <Name_Molregno>
390342

>  <DOPAMINE D3>
8.19

>  <DOPAMINE D4>
6.35

$$$$
390349
  Marvin  02231216192D 0   1.00000     0.00000     0

 33 36  0  0  1  0  0  0  0  0999 V2000
    0.7542   -0.5956    0.0000 O   0  0  0  0  0  0  0  0  0
    0.4993   -1.3802    0.0000 N   0  0  0  0  0  0  0  0  0
   -0.3257   -1.3802    0.0000 C   0  0  0  0  0  0  0  0  0
   -0.5807   -0.5956    0.0000 C   0  0  0  0  0  0  0  0  0
    0.0868   -0.1107    0.0000 C   0  0  0  0  0  0  0  0  0
    0.0868    0.7143    0.0000 C   0  0  0  0  0  0  0  0  0
    0.8012    1.1268    0.0000 C   0  0  0  0  0  0  0  0  0
    0.8012    1.9518    0.0000 C   0  0  0  0  0  0  0  0  0
    1.5157    2.3643    0.0000 N   0  0  0  0  0  0  0  0  0
    1.5157    3.1893    0.0000 C   0  0  0  0  0  0  0  0  0
    2.2302    3.6018    0.0000 C   0  0  0  0  0  0  0  0  0
    2.9447    3.1893    0.0000 N   0  0  0  0  0  0  0  0  0
    2.9447    2.3643    0.0000 C   0  0  0  0  0  0  0  0  0
    2.2302    1.9518    0.0000 C   0  0  0  0  0  0  0  0  0
    3.6591    3.6018    0.0000 C   0  0  0  0  0  0  0  0  0
    3.6591    4.4268    0.0000 C   0  0  0  0  0  0  0  0  0
    4.3736    4.8393    0.0000 C   0  0  0  0  0  0  0  0  0
    5.0881    4.4268    0.0000 C   0  0  0  0  0  0  0  0  0
    5.0881    3.6018    0.0000 C   0  0  0  0  0  0  0  0  0
    4.3736    3.1893    0.0000 C   0  0  0  0  0  0  0  0  0
    4.3736    2.3643    0.0000 O   0  0  0  0  0  0  0  0  0
    5.0881    1.9518    0.0000 C   0  0  0  0  0  0  0  0  0
    5.0881    1.1268    0.0000 C   0  0  0  0  0  0  0  0  0
   -0.8106   -2.0477    0.0000 C   0  0  0  0  0  0  0  0  0
   -0.4751   -2.8013    0.0000 C   0  0  0  0  0  0  0  0  0
   -0.9600   -3.4688    0.0000 C   0  0  0  0  0  0  0  0  0
   -0.6245   -4.2224    0.0000 O   0  0  0  0  0  0  0  0  0
   -1.1094   -4.8899    0.0000 C   0  0  0  0  0  0  0  0  0
   -1.7805   -3.3825    0.0000 C   0  0  0  0  0  0  0  0  0
   -2.2654   -4.0500    0.0000 O   0  0  0  0  0  0  0  0  0
   -1.9299   -4.8036    0.0000 C   0  0  0  0  0  0  0  0  0
   -2.1161   -2.6289    0.0000 C   0  0  0  0  0  0  0  0  0
   -1.6311   -1.9614    0.0000 C   0  0  0  0  0  0  0  0  0
  1  2  1  0  0  0  0
  1  5  1  0  0  0  0
  2  3  2  0  0  0  0
  3  4  1  0  0  0  0
  3 24  1  0  0  0  0
  4  5  1  0  0  0  0
  5  6  1  0  0  0  0
  6  7  1  0  0  0  0
  7  8  1  0  0  0  0
  8  9  1  0  0  0  0
  9 10  1  0  0  0  0
  9 14  1  0  0  0  0
 10 11  1  0  0  0  0
 11 12  1  0  0  0  0
 12 13  1  0  0  0  0
 12 15  1  0  0  0  0
 13 14  1  0  0  0  0
 15 16  4  0  0  0  0
 15 20  4  0  0  0  0
 16 17  4  0  0  0  0
 17 18  4  0  0  0  0
 18 19  4  0  0  0  0
 19 20  4  0  0  0  0
 20 21  1  0  0  0  0
 21 22  1  0  0  0  0
 22 23  1  0  0  0  0
 24 25  4  0  0  0  0
 24 33  4  0  0  0  0
 25 26  4  0  0  0  0
 26 27  1  0  0  0  0
 26 29  4  0  0  0  0
 27 28  1  0  0  0  0
 29 30  1  0  0  0  0
 29 32  4  0  0  0  0
 30 31  1  0  0  0  0
 32 33  4  0  0  0  0
M  END
>  <Name_Molregno>
390349

>  <DOPAMINE D3>
8.49

>  <DOPAMINE D4>
6.47

$$$$
405786
  Marvin  02231216192D 0   1.00000     0.00000     0

 16 18  0  0  1  0  0  0  0  0999 V2000
   -4.1976   -1.0327    0.0000 N   0  0  0  0  0  0  0  0  0
   -4.6825   -0.3653    0.0000 N   0  0  0  0  0  0  0  0  0
   -4.1976    0.3022    0.0000 C   0  0  0  0  0  0  0  0  0
   -3.4129    0.0472    0.0000 C   0  0  0  0  0  0  0  0  0
   -2.6985    0.4597    0.0000 C   0  0  0  0  0  0  0  0  0
   -1.9840    0.0472    0.0000 C   0  0  0  0  0  0  0  0  0
   -1.2695    0.4597    0.0000 N   0  0  0  0  0  0  0  0  0
   -0.5551    0.0472    0.0000 C   0  0  0  0  0  0  0  0  0
   -0.5551   -0.7778    0.0000 C   0  0  0  0  0  0  0  0  0
   -1.2695   -1.1903    0.0000 C   0  0  0  0  0  0  0  0  0
   -1.9840   -0.7778    0.0000 C   0  0  0  0  0  0  0  0  0
   -2.6985   -1.1903    0.0000 C   0  0  0  0  0  0  0  0  0
   -3.4129   -0.7778    0.0000 C   0  0  0  0  0  0  0  0  0
   -1.2695    1.2847    0.0000 C   0  0  0  0  0  0  0  0  0
   -0.5551    1.6972    0.0000 C   0  0  0  0  0  0  0  0  0
   -0.5551    2.5222    0.0000 C   0  0  0  0  0  0  0  0  0
  1  2  4  0  0  0  0
  1 13  4  0  0  0  0
  2  3  4  0  0  0  0
  3  4  4  0  0  0  0
  4  5  1  0  0  0  0
  4 13  4  0  0  0  0
  5  6  1  0  0  0  0
  6  7  1  0  0  0  0
  6 11  1  0  0  0  0
  7  8  1  0  0  0  0
  7 14  1  0  0  0  0
  8  9  1  0  0  0  0
  9 10  1  0  0  0  0
 10 11  1  0  0  0  0
 11 12  1  0  0  0  0
 12 13  1  0  0  0  0
 14 15  1  0  0  0  0
 15 16  1  0  0  0  0
M  STY  1   1 DAT
M  SAL   1  1   1
M  SDT   1 MRV_IMPLICIT_H                                        
M  SDD   1     0.0000    0.0000    DR    ALL  0       0  
M  SED   1 IMPL_H1
M  END
>  <Name_Molregno>
405786

>  <5-HT1A>
5.77

>  <5-HT1B>
5

>  <5-HT1D>
5

>  <5-HT2A>
5.24

>  <5-HT2C>
5.24

>  <Alpha-1A>
5

>  <Alpha-1B>
5

>  <Alpha-2A>
5

>  <Alpha-2B>
5.6

>  <Alpha-2C>
5

>  <Beta-1>
5

>  <Beta-2>
5

>  <DOPAMINE D1>
5

>  <DOPAMINE D2>
6.31

>  <DOPAMINE D3>
7.73

>  <DOPAMINE D4>
7.37

>  <DOPAMINE D5>
5

$$$$
407808
  Marvin  02231216192D 0   1.00000     0.00000     0

 24 27  0  0  0  0  0  0  0  0999 V2000
   -4.6851   -2.6849    0.0000 Cl  0  0  0  0  0  0  0  0  0
   -4.7139   -1.8604    0.0000 C   0  0  0  0  0  0  0  0  0
   -5.4423   -1.4731    0.0000 C   0  0  0  0  0  0  0  0  0
   -5.4711   -0.6486    0.0000 C   0  0  0  0  0  0  0  0  0
   -4.7714   -0.2114    0.0000 C   0  0  0  0  0  0  0  0  0
   -4.0430   -0.5988    0.0000 C   0  0  0  0  0  0  0  0  0
   -4.0142   -1.4233    0.0000 C   0  0  0  0  0  0  0  0  0
   -3.2858   -1.8106    0.0000 C   0  0  0  0  0  0  0  0  0
   -3.7937   -2.4607    0.0000 O   0  0  0  0  0  0  0  0  0
   -3.0308   -1.0259    0.0000 C   0  0  0  0  0  0  0  0  0
   -2.2239   -0.8544    0.0000 C   0  0  0  0  0  0  0  0  0
   -1.6718   -1.4675    0.0000 N   0  0  0  0  0  0  0  0  0
   -1.9268   -2.2521    0.0000 C   0  0  0  0  0  0  0  0  0
   -2.7338   -2.4237    0.0000 C   0  0  0  0  0  0  0  0  0
   -0.8649   -1.2960    0.0000 C   0  0  0  0  0  0  0  0  0
   -0.6099   -0.5114    0.0000 C   0  0  0  0  0  0  0  0  0
    0.1747   -0.2564    0.0000 C   0  0  0  0  0  0  0  0  0
    0.1747    0.5686    0.0000 C   0  0  0  0  0  0  0  0  0
   -0.6099    0.8235    0.0000 N   0  0  0  0  0  0  0  0  0
   -1.0949    0.1561    0.0000 C   0  0  0  0  0  0  0  0  0
    0.8892    0.9811    0.0000 C   0  0  0  0  0  0  0  0  0
    1.6036    0.5686    0.0000 C   0  0  0  0  0  0  0  0  0
    1.6036   -0.2564    0.0000 C   0  0  0  0  0  0  0  0  0
    0.8892   -0.6689    0.0000 C   0  0  0  0  0  0  0  0  0
  1  2  1  0  0  0  0
  2  3  4  0  0  0  0
  2  7  4  0  0  0  0
  3  4  4  0  0  0  0
  4  5  4  0  0  0  0
  5  6  4  0  0  0  0
  6  7  4  0  0  0  0
  7  8  1  0  0  0  0
  8  9  1  0  0  0  0
  8 10  1  0  0  0  0
  8 14  1  0  0  0  0
 10 11  1  0  0  0  0
 11 12  1  0  0  0  0
 12 13  1  0  0  0  0
 12 15  1  0  0  0  0
 13 14  1  0  0  0  0
 15 16  1  0  0  0  0
 16 17  4  0  0  0  0
 16 20  4  0  0  0  0
 17 18  4  0  0  0  0
 17 24  4  0  0  0  0
 18 19  4  0  0  0  0
 18 21  4  0  0  0  0
 19 20  4  0  0  0  0
 21 22  4  0  0  0  0
 22 23  4  0  0  0  0
 23 24  4  0  0  0  0
M  STY  1   1 DAT
M  SAL   1  1  19
M  SDT   1 MRV_IMPLICIT_H                                        
M  SDD   1     0.0000    0.0000    DR    ALL  0       0  
M  SED   1 IMPL_H1
M  END
>  <Name_Molregno>
407808

>  <DOPAMINE D2>
6.42

>  <DOPAMINE D3>
5.73

>  <DOPAMINE D4>
5.55

$$$$
407821
  Marvin  02231216192D 0   1.00000     0.00000     0

 25 28  0  0  0  0  0  0  0  0999 V2000
   -3.1429   -0.2813    0.0000 Cl  0  0  0  0  0  0  0  0  0
   -3.8426   -0.7185    0.0000 C   0  0  0  0  0  0  0  0  0
   -3.8138   -1.5430    0.0000 C   0  0  0  0  0  0  0  0  0
   -4.5134   -1.9801    0.0000 C   0  0  0  0  0  0  0  0  0
   -5.2418   -1.5928    0.0000 C   0  0  0  0  0  0  0  0  0
   -5.2706   -0.7683    0.0000 C   0  0  0  0  0  0  0  0  0
   -4.5710   -0.3312    0.0000 C   0  0  0  0  0  0  0  0  0
   -4.5998    0.4933    0.0000 Cl  0  0  0  0  0  0  0  0  0
   -3.0853   -1.9303    0.0000 C   0  0  0  0  0  0  0  0  0
   -3.5933   -2.5804    0.0000 O   0  0  0  0  0  0  0  0  0
   -2.8304   -1.1457    0.0000 C   0  0  0  0  0  0  0  0  0
   -2.0234   -0.9741    0.0000 C   0  0  0  0  0  0  0  0  0
   -1.4714   -1.5872    0.0000 N   0  0  0  0  0  0  0  0  0
   -1.7263   -2.3718    0.0000 C   0  0  0  0  0  0  0  0  0
   -2.5333   -2.5434    0.0000 C   0  0  0  0  0  0  0  0  0
   -0.6644   -1.4157    0.0000 C   0  0  0  0  0  0  0  0  0
   -0.4095   -0.6311    0.0000 C   0  0  0  0  0  0  0  0  0
    0.3751   -0.3761    0.0000 C   0  0  0  0  0  0  0  0  0
    0.3751    0.4489    0.0000 C   0  0  0  0  0  0  0  0  0
   -0.4095    0.7038    0.0000 N   0  0  0  0  0  0  0  0  0
   -0.8944    0.0364    0.0000 C   0  0  0  0  0  0  0  0  0
    1.0896    0.8614    0.0000 C   0  0  0  0  0  0  0  0  0
    1.8041    0.4489    0.0000 C   0  0  0  0  0  0  0  0  0
    1.8041   -0.3761    0.0000 C   0  0  0  0  0  0  0  0  0
    1.0896   -0.7886    0.0000 C   0  0  0  0  0  0  0  0  0
  1  2  1  0  0  0  0
  2  3  4  0  0  0  0
  2  7  4  0  0  0  0
  3  4  4  0  0  0  0
  3  9  1  0  0  0  0
  4  5  4  0  0  0  0
  5  6  4  0  0  0  0
  6  7  4  0  0  0  0
  7  8  1  0  0  0  0
  9 10  1  0  0  0  0
  9 11  1  0  0  0  0
  9 15  1  0  0  0  0
 11 12  1  0  0  0  0
 12 13  1  0  0  0  0
 13 14  1  0  0  0  0
 13 16  1  0  0  0  0
 14 15  1  0  0  0  0
 16 17  1  0  0  0  0
 17 18  4  0  0  0  0
 17 21  4  0  0  0  0
 18 19  4  0  0  0  0
 18 25  4  0  0  0  0
 19 20  4  0  0  0  0
 19 22  4  0  0  0  0
 20 21  4  0  0  0  0
 22 23  4  0  0  0  0
 23 24  4  0  0  0  0
 24 25  4  0  0  0  0
M  STY  1   1 DAT
M  SAL   1  1  20
M  SDT   1 MRV_IMPLICIT_H                                        
M  SDD   1     0.0000    0.0000    DR    ALL  0       0  
M  SED   1 IMPL_H1
M  END
>  <Name_Molregno>
407821

>  <DOPAMINE D2>
7.58

>  <DOPAMINE D3>
6.56

>  <DOPAMINE D4>
5.81

$$$$
407823
  Marvin  02231216192D 0   1.00000     0.00000     0

 24 27  0  0  0  0  0  0  0  0999 V2000
    1.3069    1.6249    0.0000 Cl  0  0  0  0  0  0  0  0  0
    1.3357    0.8004    0.0000 C   0  0  0  0  0  0  0  0  0
    2.0641    0.4130    0.0000 C   0  0  0  0  0  0  0  0  0
    2.0929   -0.4115    0.0000 C   0  0  0  0  0  0  0  0  0
    1.3933   -0.8486    0.0000 C   0  0  0  0  0  0  0  0  0
    0.6649   -0.4613    0.0000 C   0  0  0  0  0  0  0  0  0
    0.6361    0.3632    0.0000 C   0  0  0  0  0  0  0  0  0
    2.8214   -0.7988    0.0000 C   0  0  0  0  0  0  0  0  0
    2.3134   -1.4489    0.0000 O   0  0  0  0  0  0  0  0  0
    3.0763   -0.0141    0.0000 C   0  0  0  0  0  0  0  0  0
    3.8833    0.1574    0.0000 C   0  0  0  0  0  0  0  0  0
    4.4353   -0.4557    0.0000 N   0  0  0  0  0  0  0  0  0
    4.1804   -1.2403    0.0000 C   0  0  0  0  0  0  0  0  0
    3.3734   -1.4119    0.0000 C   0  0  0  0  0  0  0  0  0
    5.2423   -0.2842    0.0000 C   0  0  0  0  0  0  0  0  0
    5.4972    0.5004    0.0000 C   0  0  0  0  0  0  0  0  0
    6.2818    0.7554    0.0000 C   0  0  0  0  0  0  0  0  0
    6.2818    1.5804    0.0000 C   0  0  0  0  0  0  0  0  0
    5.4972    1.8353    0.0000 N   0  0  0  0  0  0  0  0  0
    5.0123    1.1679    0.0000 C   0  0  0  0  0  0  0  0  0
    6.9963    1.9929    0.0000 C   0  0  0  0  0  0  0  0  0
    7.7108    1.5804    0.0000 C   0  0  0  0  0  0  0  0  0
    7.7108    0.7554    0.0000 C   0  0  0  0  0  0  0  0  0
    6.9963    0.3429    0.0000 C   0  0  0  0  0  0  0  0  0
  1  2  1  0  0  0  0
  2  3  4  0  0  0  0
  2  7  4  0  0  0  0
  3  4  4  0  0  0  0
  4  5  4  0  0  0  0
  4  8  1  0  0  0  0
  5  6  4  0  0  0  0
  6  7  4  0  0  0  0
  8  9  1  0  0  0  0
  8 10  1  0  0  0  0
  8 14  1  0  0  0  0
 10 11  1  0  0  0  0
 11 12  1  0  0  0  0
 12 13  1  0  0  0  0
 12 15  1  0  0  0  0
 13 14  1  0  0  0  0
 15 16  1  0  0  0  0
 16 17  4  0  0  0  0
 16 20  4  0  0  0  0
 17 18  4  0  0  0  0
 17 24  4  0  0  0  0
 18 19  4  0  0  0  0
 18 21  4  0  0  0  0
 19 20  4  0  0  0  0
 21 22  4  0  0  0  0
 22 23  4  0  0  0  0
 23 24  4  0  0  0  0
M  STY  1   1 DAT
M  SAL   1  1  19
M  SDT   1 MRV_IMPLICIT_H                                        
M  SDD   1     0.0000    0.0000    DR    ALL  0       0  
M  SED   1 IMPL_H1
M  END
>  <Name_Molregno>
407823

>  <DOPAMINE D2>
6.89

>  <DOPAMINE D3>
6.35

>  <DOPAMINE D4>
5.45

$$$$
407825
  Marvin  02231216192D 0   1.00000     0.00000     0

 25 28  0  0  0  0  0  0  0  0999 V2000
    1.3109    1.5332    0.0000 Cl  0  0  0  0  0  0  0  0  0
    1.3397    0.7087    0.0000 C   0  0  0  0  0  0  0  0  0
    2.0682    0.3214    0.0000 C   0  0  0  0  0  0  0  0  0
    2.0969   -0.5031    0.0000 C   0  0  0  0  0  0  0  0  0
    1.3973   -0.9403    0.0000 C   0  0  0  0  0  0  0  0  0
    0.6689   -0.5530    0.0000 C   0  0  0  0  0  0  0  0  0
    0.6401    0.2715    0.0000 C   0  0  0  0  0  0  0  0  0
   -0.0884    0.6588    0.0000 Cl  0  0  0  0  0  0  0  0  0
    2.8254   -0.8904    0.0000 C   0  0  0  0  0  0  0  0  0
    2.3175   -1.5405    0.0000 O   0  0  0  0  0  0  0  0  0
    3.0803   -0.1058    0.0000 C   0  0  0  0  0  0  0  0  0
    3.8873    0.0657    0.0000 C   0  0  0  0  0  0  0  0  0
    4.4393   -0.5474    0.0000 N   0  0  0  0  0  0  0  0  0
    4.1844   -1.3320    0.0000 C   0  0  0  0  0  0  0  0  0
    3.3774   -1.5035    0.0000 C   0  0  0  0  0  0  0  0  0
    5.2463   -0.3759    0.0000 C   0  0  0  0  0  0  0  0  0
    5.5012    0.4088    0.0000 C   0  0  0  0  0  0  0  0  0
    6.2859    0.6637    0.0000 C   0  0  0  0  0  0  0  0  0
    6.2859    1.4887    0.0000 C   0  0  0  0  0  0  0  0  0
    5.5012    1.7436    0.0000 N   0  0  0  0  0  0  0  0  0
    5.0163    1.0762    0.0000 C   0  0  0  0  0  0  0  0  0
    7.0003    1.9012    0.0000 C   0  0  0  0  0  0  0  0  0
    7.7148    1.4887    0.0000 C   0  0  0  0  0  0  0  0  0
    7.7148    0.6637    0.0000 C   0  0  0  0  0  0  0  0  0
    7.0003    0.2512    0.0000 C   0  0  0  0  0  0  0  0  0
  1  2  1  0  0  0  0
  2  3  4  0  0  0  0
  2  7  4  0  0  0  0
  3  4  4  0  0  0  0
  4  5  4  0  0  0  0
  4  9  1  0  0  0  0
  5  6  4  0  0  0  0
  6  7  4  0  0  0  0
  7  8  1  0  0  0  0
  9 10  1  0  0  0  0
  9 11  1  0  0  0  0
  9 15  1  0  0  0  0
 11 12  1  0  0  0  0
 12 13  1  0  0  0  0
 13 14  1  0  0  0  0
 13 16  1  0  0  0  0
 14 15  1  0  0  0  0
 16 17  1  0  0  0  0
 17 18  4  0  0  0  0
 17 21  4  0  0  0  0
 18 19  4  0  0  0  0
 18 25  4  0  0  0  0
 19 20  4  0  0  0  0
 19 22  4  0  0  0  0
 20 21  4  0  0  0  0
 22 23  4  0  0  0  0
 23 24  4  0  0  0  0
 24 25  4  0  0  0  0
M  STY  1   1 DAT
M  SAL   1  1  20
M  SDT   1 MRV_IMPLICIT_H                                        
M  SDD   1     0.0000    0.0000    DR    ALL  0       0  
M  SED   1 IMPL_H1
M  END
>  <Name_Molregno>
407825

>  <DOPAMINE D2>
8.16

>  <DOPAMINE D3>
6.95

>  <DOPAMINE D4>
5.96

$$$$
407827
  Marvin  02231216192D 0   1.00000     0.00000     0

 27 30  0  0  0  0  0  0  0  0999 V2000
    1.1555    4.2653    0.0000 F   0  0  0  0  0  0  0  0  0
    1.1843    3.4408    0.0000 C   0  0  0  0  0  0  0  0  0
    0.3598    3.4120    0.0000 F   0  0  0  0  0  0  0  0  0
    2.0088    3.4696    0.0000 F   0  0  0  0  0  0  0  0  0
    1.2131    2.6163    0.0000 C   0  0  0  0  0  0  0  0  0
    1.9415    2.2290    0.0000 C   0  0  0  0  0  0  0  0  0
    1.9703    1.4045    0.0000 C   0  0  0  0  0  0  0  0  0
    1.2707    0.9673    0.0000 C   0  0  0  0  0  0  0  0  0
    0.5422    1.3546    0.0000 C   0  0  0  0  0  0  0  0  0
    0.5134    2.1791    0.0000 C   0  0  0  0  0  0  0  0  0
    2.6987    1.0172    0.0000 C   0  0  0  0  0  0  0  0  0
    2.1908    0.3671    0.0000 O   0  0  0  0  0  0  0  0  0
    2.9537    1.8018    0.0000 C   0  0  0  0  0  0  0  0  0
    3.7607    1.9733    0.0000 C   0  0  0  0  0  0  0  0  0
    4.3127    1.3602    0.0000 N   0  0  0  0  0  0  0  0  0
    4.0577    0.5756    0.0000 C   0  0  0  0  0  0  0  0  0
    3.2508    0.4041    0.0000 C   0  0  0  0  0  0  0  0  0
    5.1197    1.5318    0.0000 C   0  0  0  0  0  0  0  0  0
    5.3746    2.3164    0.0000 C   0  0  0  0  0  0  0  0  0
    6.1592    2.5713    0.0000 C   0  0  0  0  0  0  0  0  0
    6.1592    3.3963    0.0000 C   0  0  0  0  0  0  0  0  0
    5.3746    3.6513    0.0000 N   0  0  0  0  0  0  0  0  0
    4.8897    2.9838    0.0000 C   0  0  0  0  0  0  0  0  0
    6.8737    3.8088    0.0000 C   0  0  0  0  0  0  0  0  0
    7.5882    3.3963    0.0000 C   0  0  0  0  0  0  0  0  0
    7.5882    2.5713    0.0000 C   0  0  0  0  0  0  0  0  0
    6.8737    2.1588    0.0000 C   0  0  0  0  0  0  0  0  0
  1  2  1  0  0  0  0
  2  3  1  0  0  0  0
  2  4  1  0  0  0  0
  2  5  1  0  0  0  0
  5  6  4  0  0  0  0
  5 10  4  0  0  0  0
  6  7  4  0  0  0  0
  7  8  4  0  0  0  0
  7 11  1  0  0  0  0
  8  9  4  0  0  0  0
  9 10  4  0  0  0  0
 11 12  1  0  0  0  0
 11 13  1  0  0  0  0
 11 17  1  0  0  0  0
 13 14  1  0  0  0  0
 14 15  1  0  0  0  0
 15 16  1  0  0  0  0
 15 18  1  0  0  0  0
 16 17  1  0  0  0  0
 18 19  1  0  0  0  0
 19 20  4  0  0  0  0
 19 23  4  0  0  0  0
 20 21  4  0  0  0  0
 20 27  4  0  0  0  0
 21 22  4  0  0  0  0
 21 24  4  0  0  0  0
 22 23  4  0  0  0  0
 24 25  4  0  0  0  0
 25 26  4  0  0  0  0
 26 27  4  0  0  0  0
M  STY  1   1 DAT
M  SAL   1  1  22
M  SDT   1 MRV_IMPLICIT_H                                        
M  SDD   1     0.0000    0.0000    DR    ALL  0       0  
M  SED   1 IMPL_H1
M  END
>  <Name_Molregno>
407827

>  <DOPAMINE D2>
6.97

>  <DOPAMINE D3>
6.24

>  <DOPAMINE D4>
5.43

$$$$
407828
  Marvin  02231216192D 0   1.00000     0.00000     0

 24 27  0  0  0  0  0  0  0  0999 V2000
    0.3176    0.0313    0.0000 F   0  0  0  0  0  0  0  0  0
    1.0460   -0.3560    0.0000 C   0  0  0  0  0  0  0  0  0
    1.7457    0.0812    0.0000 C   0  0  0  0  0  0  0  0  0
    2.4741   -0.3061    0.0000 C   0  0  0  0  0  0  0  0  0
    2.5029   -1.1306    0.0000 C   0  0  0  0  0  0  0  0  0
    1.8032   -1.5678    0.0000 C   0  0  0  0  0  0  0  0  0
    1.0748   -1.1805    0.0000 C   0  0  0  0  0  0  0  0  0
    3.2313   -1.5179    0.0000 C   0  0  0  0  0  0  0  0  0
    2.7234   -2.1680    0.0000 O   0  0  0  0  0  0  0  0  0
    3.4863   -0.7333    0.0000 C   0  0  0  0  0  0  0  0  0
    4.2932   -0.5618    0.0000 C   0  0  0  0  0  0  0  0  0
    4.8453   -1.1749    0.0000 N   0  0  0  0  0  0  0  0  0
    4.5903   -1.9595    0.0000 C   0  0  0  0  0  0  0  0  0
    3.7833   -2.1310    0.0000 C   0  0  0  0  0  0  0  0  0
    5.6522   -1.0033    0.0000 C   0  0  0  0  0  0  0  0  0
    5.9072   -0.2187    0.0000 C   0  0  0  0  0  0  0  0  0
    6.6918    0.0362    0.0000 C   0  0  0  0  0  0  0  0  0
    6.6918    0.8612    0.0000 C   0  0  0  0  0  0  0  0  0
    5.9072    1.1162    0.0000 N   0  0  0  0  0  0  0  0  0
    5.4222    0.4487    0.0000 C   0  0  0  0  0  0  0  0  0
    7.4063    1.2737    0.0000 C   0  0  0  0  0  0  0  0  0
    8.1207    0.8612    0.0000 C   0  0  0  0  0  0  0  0  0
    8.1207    0.0362    0.0000 C   0  0  0  0  0  0  0  0  0
    7.4063   -0.3763    0.0000 C   0  0  0  0  0  0  0  0  0
  1  2  1  0  0  0  0
  2  3  4  0  0  0  0
  2  7  4  0  0  0  0
  3  4  4  0  0  0  0
  4  5  4  0  0  0  0
  5  6  4  0  0  0  0
  5  8  1  0  0  0  0
  6  7  4  0  0  0  0
  8  9  1  0  0  0  0
  8 10  1  0  0  0  0
  8 14  1  0  0  0  0
 10 11  1  0  0  0  0
 11 12  1  0  0  0  0
 12 13  1  0  0  0  0
 12 15  1  0  0  0  0
 13 14  1  0  0  0  0
 15 16  1  0  0  0  0
 16 17  4  0  0  0  0
 16 20  4  0  0  0  0
 17 18  4  0  0  0  0
 17 24  4  0  0  0  0
 18 19  4  0  0  0  0
 18 21  4  0  0  0  0
 19 20  4  0  0  0  0
 21 22  4  0  0  0  0
 22 23  4  0  0  0  0
 23 24  4  0  0  0  0
M  STY  1   1 DAT
M  SAL   1  1  19
M  SDT   1 MRV_IMPLICIT_H                                        
M  SDD   1     0.0000    0.0000    DR    ALL  0       0  
M  SED   1 IMPL_H1
M  END
>  <Name_Molregno>
407828

>  <DOPAMINE D2>
6.9

>  <DOPAMINE D3>
6.31

>  <DOPAMINE D4>
5.22

$$$$
407830
  Marvin  02231216192D 0   1.00000     0.00000     0

 24 27  0  0  0  0  0  0  0  0999 V2000
   -0.4290   -2.1977    0.0000 O   0  0  0  0  0  0  0  0  0
   -1.2460   -2.0829    0.0000 C   0  0  0  0  0  0  0  0  0
   -2.0530   -2.2544    0.0000 C   0  0  0  0  0  0  0  0  0
   -2.6050   -1.6413    0.0000 C   0  0  0  0  0  0  0  0  0
   -2.3501   -0.8567    0.0000 N   0  0  0  0  0  0  0  0  0
   -1.5431   -0.6852    0.0000 C   0  0  0  0  0  0  0  0  0
   -0.9911   -1.2983    0.0000 C   0  0  0  0  0  0  0  0  0
   -2.9021   -0.2436    0.0000 C   0  0  0  0  0  0  0  0  0
   -2.6472    0.5410    0.0000 C   0  0  0  0  0  0  0  0  0
   -1.8625    0.7960    0.0000 C   0  0  0  0  0  0  0  0  0
   -1.8625    1.6210    0.0000 C   0  0  0  0  0  0  0  0  0
   -2.6472    1.8759    0.0000 N   0  0  0  0  0  0  0  0  0
   -3.1321    1.2085    0.0000 C   0  0  0  0  0  0  0  0  0
   -1.1481    2.0335    0.0000 C   0  0  0  0  0  0  0  0  0
   -0.4336    1.6210    0.0000 C   0  0  0  0  0  0  0  0  0
   -0.4336    0.7960    0.0000 C   0  0  0  0  0  0  0  0  0
   -1.1481    0.3835    0.0000 C   0  0  0  0  0  0  0  0  0
   -1.2172   -2.9074    0.0000 C   0  0  0  0  0  0  0  0  0
   -0.4888   -3.2947    0.0000 C   0  0  0  0  0  0  0  0  0
   -0.4600   -4.1192    0.0000 C   0  0  0  0  0  0  0  0  0
   -1.1596   -4.5564    0.0000 C   0  0  0  0  0  0  0  0  0
   -1.1308   -5.3809    0.0000 O   0  0  0  0  0  0  0  0  0
   -1.8881   -4.1691    0.0000 C   0  0  0  0  0  0  0  0  0
   -1.9169   -3.3446    0.0000 C   0  0  0  0  0  0  0  0  0
  1  2  1  0  0  0  0
  2  3  1  0  0  0  0
  2  7  1  0  0  0  0
  2 18  1  0  0  0  0
  3  4  1  0  0  0  0
  4  5  1  0  0  0  0
  5  6  1  0  0  0  0
  5  8  1  0  0  0  0
  6  7  1  0  0  0  0
  8  9  1  0  0  0  0
  9 10  4  0  0  0  0
  9 13  4  0  0  0  0
 10 11  4  0  0  0  0
 10 17  4  0  0  0  0
 11 12  4  0  0  0  0
 11 14  4  0  0  0  0
 12 13  4  0  0  0  0
 14 15  4  0  0  0  0
 15 16  4  0  0  0  0
 16 17  4  0  0  0  0
 18 19  4  0  0  0  0
 18 24  4  0  0  0  0
 19 20  4  0  0  0  0
 20 21  4  0  0  0  0
 21 22  1  0  0  0  0
 21 23  4  0  0  0  0
 23 24  4  0  0  0  0
M  STY  1   1 DAT
M  SAL   1  1  12
M  SDT   1 MRV_IMPLICIT_H                                        
M  SDD   1     0.0000    0.0000    DR    ALL  0       0  
M  SED   1 IMPL_H1
M  END
>  <Name_Molregno>
407830

>  <DOPAMINE D2>
5.27

>  <DOPAMINE D3>
4.77

>  <DOPAMINE D4>
5.87

$$$$
407832
  Marvin  02231216192D 0   1.00000     0.00000     0

 25 28  0  0  0  0  0  0  0  0999 V2000
   -8.0736    0.9213    0.0000 O   0  0  0  0  0  0  0  0  0
   -8.7732    0.4841    0.0000 C   0  0  0  0  0  0  0  0  0
   -7.3452    0.5340    0.0000 C   0  0  0  0  0  0  0  0  0
   -6.6455    0.9712    0.0000 C   0  0  0  0  0  0  0  0  0
   -5.9171    0.5838    0.0000 C   0  0  0  0  0  0  0  0  0
   -5.8883   -0.2407    0.0000 C   0  0  0  0  0  0  0  0  0
   -6.5879   -0.6778    0.0000 C   0  0  0  0  0  0  0  0  0
   -7.3164   -0.2905    0.0000 C   0  0  0  0  0  0  0  0  0
   -5.1599   -0.6280    0.0000 C   0  0  0  0  0  0  0  0  0
   -5.6678   -1.2781    0.0000 O   0  0  0  0  0  0  0  0  0
   -4.9049    0.1566    0.0000 C   0  0  0  0  0  0  0  0  0
   -4.0980    0.3282    0.0000 C   0  0  0  0  0  0  0  0  0
   -3.5459   -0.2849    0.0000 N   0  0  0  0  0  0  0  0  0
   -3.8009   -1.0695    0.0000 C   0  0  0  0  0  0  0  0  0
   -4.6078   -1.2411    0.0000 C   0  0  0  0  0  0  0  0  0
   -2.7390   -0.1134    0.0000 C   0  0  0  0  0  0  0  0  0
   -2.4840    0.6712    0.0000 C   0  0  0  0  0  0  0  0  0
   -1.6994    0.9262    0.0000 C   0  0  0  0  0  0  0  0  0
   -1.6994    1.7512    0.0000 C   0  0  0  0  0  0  0  0  0
   -2.4840    2.0061    0.0000 N   0  0  0  0  0  0  0  0  0
   -2.9689    1.3387    0.0000 C   0  0  0  0  0  0  0  0  0
   -0.9849    2.1637    0.0000 C   0  0  0  0  0  0  0  0  0
   -0.2705    1.7512    0.0000 C   0  0  0  0  0  0  0  0  0
   -0.2705    0.9262    0.0000 C   0  0  0  0  0  0  0  0  0
   -0.9849    0.5137    0.0000 C   0  0  0  0  0  0  0  0  0
  1  2  1  0  0  0  0
  1  3  1  0  0  0  0
  3  4  4  0  0  0  0
  3  8  4  0  0  0  0
  4  5  4  0  0  0  0
  5  6  4  0  0  0  0
  6  7  4  0  0  0  0
  6  9  1  0  0  0  0
  7  8  4  0  0  0  0
  9 10  1  0  0  0  0
  9 11  1  0  0  0  0
  9 15  1  0  0  0  0
 11 12  1  0  0  0  0
 12 13  1  0  0  0  0
 13 14  1  0  0  0  0
 13 16  1  0  0  0  0
 14 15  1  0  0  0  0
 16 17  1  0  0  0  0
 17 18  4  0  0  0  0
 17 21  4  0  0  0  0
 18 19  4  0  0  0  0
 18 25  4  0  0  0  0
 19 20  4  0  0  0  0
 19 22  4  0  0  0  0
 20 21  4  0  0  0  0
 22 23  4  0  0  0  0
 23 24  4  0  0  0  0
 24 25  4  0  0  0  0
M  STY  1   1 DAT
M  SAL   1  1  20
M  SDT   1 MRV_IMPLICIT_H                                        
M  SDD   1     0.0000    0.0000    DR    ALL  0       0  
M  SED   1 IMPL_H1
M  END
>  <Name_Molregno>
407832

>  <DOPAMINE D2>
6.75

>  <DOPAMINE D3>
5.67

>  <DOPAMINE D4>
6.17

$$$$
407833
  Marvin  02231216192D 0   1.00000     0.00000     0

 30 33  0  0  0  0  0  0  0  0999 V2000
   -0.3705   -0.4880    0.0000 O   0  0  0  0  0  0  0  0  0
    0.3440   -0.0755    0.0000 C   0  0  0  0  0  0  0  0  0
    1.0585   -0.4880    0.0000 C   0  0  0  0  0  0  0  0  0
    1.7730   -0.0755    0.0000 C   0  0  0  0  0  0  0  0  0
    2.4874   -0.4880    0.0000 C   0  0  0  0  0  0  0  0  0
    3.2019   -0.0755    0.0000 C   0  0  0  0  0  0  0  0  0
    3.9164   -0.4880    0.0000 C   0  0  0  0  0  0  0  0  0
   -1.0849   -0.0755    0.0000 C   0  0  0  0  0  0  0  0  0
   -1.7994   -0.4880    0.0000 C   0  0  0  0  0  0  0  0  0
   -2.5139   -0.0755    0.0000 C   0  0  0  0  0  0  0  0  0
   -2.5139    0.7495    0.0000 C   0  0  0  0  0  0  0  0  0
   -1.7994    1.1620    0.0000 C   0  0  0  0  0  0  0  0  0
   -1.0849    0.7495    0.0000 C   0  0  0  0  0  0  0  0  0
   -3.2283    1.1620    0.0000 C   0  0  0  0  0  0  0  0  0
   -2.6980    1.7940    0.0000 O   0  0  0  0  0  0  0  0  0
   -3.5105    0.3868    0.0000 C   0  0  0  0  0  0  0  0  0
   -4.3230    0.2435    0.0000 C   0  0  0  0  0  0  0  0  0
   -4.8533    0.8755    0.0000 N   0  0  0  0  0  0  0  0  0
   -4.5711    1.6507    0.0000 C   0  0  0  0  0  0  0  0  0
   -3.7586    1.7940    0.0000 C   0  0  0  0  0  0  0  0  0
   -5.6657    0.7322    0.0000 C   0  0  0  0  0  0  0  0  0
   -5.9479   -0.0430    0.0000 C   0  0  0  0  0  0  0  0  0
   -6.7409   -0.2704    0.0000 C   0  0  0  0  0  0  0  0  0
   -6.7697   -1.0949    0.0000 C   0  0  0  0  0  0  0  0  0
   -5.9945   -1.3771    0.0000 N   0  0  0  0  0  0  0  0  0
   -5.4866   -0.7270    0.0000 C   0  0  0  0  0  0  0  0  0
   -7.4982   -1.4822    0.0000 C   0  0  0  0  0  0  0  0  0
   -8.1978   -1.0450    0.0000 C   0  0  0  0  0  0  0  0  0
   -8.1690   -0.2205    0.0000 C   0  0  0  0  0  0  0  0  0
   -7.4406    0.1668    0.0000 C   0  0  0  0  0  0  0  0  0
  1  2  1  0  0  0  0
  1  8  1  0  0  0  0
  2  3  1  0  0  0  0
  3  4  1  0  0  0  0
  4  5  1  0  0  0  0
  5  6  1  0  0  0  0
  6  7  1  0  0  0  0
  8  9  4  0  0  0  0
  8 13  4  0  0  0  0
  9 10  4  0  0  0  0
 10 11  4  0  0  0  0
 11 12  4  0  0  0  0
 11 14  1  0  0  0  0
 12 13  4  0  0  0  0
 14 15  1  0  0  0  0
 14 16  1  0  0  0  0
 14 20  1  0  0  0  0
 16 17  1  0  0  0  0
 17 18  1  0  0  0  0
 18 19  1  0  0  0  0
 18 21  1  0  0  0  0
 19 20  1  0  0  0  0
 21 22  1  0  0  0  0
 22 23  4  0  0  0  0
 22 26  4  0  0  0  0
 23 24  4  0  0  0  0
 23 30  4  0  0  0  0
 24 25  4  0  0  0  0
 24 27  4  0  0  0  0
 25 26  4  0  0  0  0
 27 28  4  0  0  0  0
 28 29  4  0  0  0  0
 29 30  4  0  0  0  0
M  STY  1   1 DAT
M  SAL   1  1  25
M  SDT   1 MRV_IMPLICIT_H                                        
M  SDD   1     0.0000    0.0000    DR    ALL  0       0  
M  SED   1 IMPL_H1
M  END
>  <Name_Molregno>
407833

>  <DOPAMINE D2>
6.8

>  <DOPAMINE D3>
5.71

>  <DOPAMINE D4>
5.83

$$$$
407834
  Marvin  02231216192D 0   1.00000     0.00000     0

 29 33  0  0  0  0  0  0  0  0999 V2000
    0.4042   -1.2132    0.0000 O   0  0  0  0  0  0  0  0  0
   -0.4128   -1.0984    0.0000 C   0  0  0  0  0  0  0  0  0
   -1.2198   -1.2699    0.0000 C   0  0  0  0  0  0  0  0  0
   -1.7718   -0.6568    0.0000 C   0  0  0  0  0  0  0  0  0
   -1.5169    0.1278    0.0000 N   0  0  0  0  0  0  0  0  0
   -0.7099    0.2993    0.0000 C   0  0  0  0  0  0  0  0  0
   -0.1579   -0.3138    0.0000 C   0  0  0  0  0  0  0  0  0
   -2.0689    0.7409    0.0000 C   0  0  0  0  0  0  0  0  0
   -1.8140    1.5255    0.0000 C   0  0  0  0  0  0  0  0  0
   -1.0293    1.7805    0.0000 C   0  0  0  0  0  0  0  0  0
   -1.0293    2.6055    0.0000 C   0  0  0  0  0  0  0  0  0
   -1.8140    2.8604    0.0000 N   0  0  0  0  0  0  0  0  0
   -2.2989    2.1930    0.0000 C   0  0  0  0  0  0  0  0  0
   -0.3149    3.0180    0.0000 C   0  0  0  0  0  0  0  0  0
    0.3996    2.6055    0.0000 C   0  0  0  0  0  0  0  0  0
    0.3996    1.7805    0.0000 C   0  0  0  0  0  0  0  0  0
   -0.3149    1.3680    0.0000 C   0  0  0  0  0  0  0  0  0
   -0.3840   -1.9229    0.0000 C   0  0  0  0  0  0  0  0  0
    0.3444   -2.3102    0.0000 C   0  0  0  0  0  0  0  0  0
    0.3732   -3.1347    0.0000 C   0  0  0  0  0  0  0  0  0
   -0.3264   -3.5719    0.0000 C   0  0  0  0  0  0  0  0  0
   -1.0549   -3.1846    0.0000 C   0  0  0  0  0  0  0  0  0
   -1.0836   -2.3601    0.0000 C   0  0  0  0  0  0  0  0  0
   -0.2976   -4.3964    0.0000 C   0  0  0  0  0  0  0  0  0
    0.4308   -4.7837    0.0000 C   0  0  0  0  0  0  0  0  0
    0.4596   -5.6082    0.0000 C   0  0  0  0  0  0  0  0  0
   -0.2400   -6.0454    0.0000 C   0  0  0  0  0  0  0  0  0
   -0.9685   -5.6581    0.0000 C   0  0  0  0  0  0  0  0  0
   -0.9973   -4.8336    0.0000 C   0  0  0  0  0  0  0  0  0
  1  2  1  0  0  0  0
  2  3  1  0  0  0  0
  2  7  1  0  0  0  0
  2 18  1  0  0  0  0
  3  4  1  0  0  0  0
  4  5  1  0  0  0  0
  5  6  1  0  0  0  0
  5  8  1  0  0  0  0
  6  7  1  0  0  0  0
  8  9  1  0  0  0  0
  9 10  4  0  0  0  0
  9 13  4  0  0  0  0
 10 11  4  0  0  0  0
 10 17  4  0  0  0  0
 11 12  4  0  0  0  0
 11 14  4  0  0  0  0
 12 13  4  0  0  0  0
 14 15  4  0  0  0  0
 15 16  4  0  0  0  0
 16 17  4  0  0  0  0
 18 19  4  0  0  0  0
 18 23  4  0  0  0  0
 19 20  4  0  0  0  0
 20 21  4  0  0  0  0
 21 22  4  0  0  0  0
 21 24  1  0  0  0  0
 22 23  4  0  0  0  0
 24 25  4  0  0  0  0
 24 29  4  0  0  0  0
 25 26  4  0  0  0  0
 26 27  4  0  0  0  0
 27 28  4  0  0  0  0
 28 29  4  0  0  0  0
M  STY  1   1 DAT
M  SAL   1  1  12
M  SDT   1 MRV_IMPLICIT_H                                        
M  SDD   1     0.0000    0.0000    DR    ALL  0       0  
M  SED   1 IMPL_H1
M  END
>  <Name_Molregno>
407834

>  <DOPAMINE D2>
7.01

>  <DOPAMINE D3>
6.33

>  <DOPAMINE D4>
6.89

$$$$
407835
  Marvin  02231216192D 0   1.00000     0.00000     0

 25 28  0  0  1  0  0  0  0  0999 V2000
    0.0360   -1.7148    0.0000 Cl  0  0  0  0  0  0  0  0  0
    0.8609   -1.7271    0.0000 C   0  0  0  0  0  0  0  0  0
    1.2840   -1.0189    0.0000 C   0  0  0  0  0  0  0  0  0
    2.1089   -1.0312    0.0000 C   0  0  0  0  0  0  0  0  0
    2.5107   -1.7518    0.0000 C   0  0  0  0  0  0  0  0  0
    2.0876   -2.4600    0.0000 C   0  0  0  0  0  0  0  0  0
    1.2627   -2.4477    0.0000 C   0  0  0  0  0  0  0  0  0
    3.3356   -1.7641    0.0000 C   0  0  0  0  0  0  0  0  0
    3.1400   -2.5656    0.0000 O   0  0  0  0  0  0  0  0  0
    3.1641   -0.9572    0.0000 C   0  0  0  0  0  0  0  0  0
    3.6881   -0.3199    0.0000 C   0  0  0  0  0  0  0  0  0
    4.5130   -0.3323    0.0000 C   0  0  0  0  0  0  0  0  0
    5.0176   -0.9849    0.0000 N   0  0  0  0  0  0  0  0  0
    4.8221   -1.7864    0.0000 C   0  0  0  0  0  0  0  0  0
    4.0735   -2.1332    0.0000 C   0  0  0  0  0  0  0  0  0
    5.8246   -0.8134    0.0000 C   0  0  0  0  0  0  0  0  0
    6.0796   -0.0287    0.0000 C   0  0  0  0  0  0  0  0  0
    6.8642    0.2262    0.0000 C   0  0  0  0  0  0  0  0  0
    6.8642    1.0512    0.0000 C   0  0  0  0  0  0  0  0  0
    6.0796    1.3061    0.0000 N   0  0  0  0  0  0  0  0  0
    5.5946    0.6387    0.0000 C   0  0  0  0  0  0  0  0  0
    7.5786    1.4637    0.0000 C   0  0  0  0  0  0  0  0  0
    8.2931    1.0512    0.0000 C   0  0  0  0  0  0  0  0  0
    8.2931    0.2262    0.0000 C   0  0  0  0  0  0  0  0  0
    7.5786   -0.1863    0.0000 C   0  0  0  0  0  0  0  0  0
  1  2  1  0  0  0  0
  2  3  4  0  0  0  0
  2  7  4  0  0  0  0
  3  4  4  0  0  0  0
  4  5  4  0  0  0  0
  5  6  4  0  0  0  0
  5  8  1  0  0  0  0
  6  7  4  0  0  0  0
  8  9  1  0  0  0  0
  8 10  1  0  0  0  0
  8 15  1  0  0  0  0
 10 11  1  0  0  0  0
 11 12  1  0  0  0  0
 12 13  1  0  0  0  0
 13 14  1  0  0  0  0
 13 16  1  0  0  0  0
 14 15  1  0  0  0  0
 16 17  1  0  0  0  0
 17 18  4  0  0  0  0
 17 21  4  0  0  0  0
 18 19  4  0  0  0  0
 18 25  4  0  0  0  0
 19 20  4  0  0  0  0
 19 22  4  0  0  0  0
 20 21  4  0  0  0  0
 22 23  4  0  0  0  0
 23 24  4  0  0  0  0
 24 25  4  0  0  0  0
M  STY  1   1 DAT
M  SAL   1  1  20
M  SDT   1 MRV_IMPLICIT_H                                        
M  SDD   1     0.0000    0.0000    DR    ALL  0       0  
M  SED   1 IMPL_H1
M  END
>  <Name_Molregno>
407835

>  <DOPAMINE D2>
6.7

>  <DOPAMINE D3>
5.68

>  <DOPAMINE D4>
5.41

$$$$
407837
  Marvin  02231216192D 0   1.00000     0.00000     0

 25 28  0  0  0  0  0  0  0  0999 V2000
    1.3583    0.3838    0.0000 Cl  0  0  0  0  0  0  0  0  0
    1.3871   -0.4407    0.0000 C   0  0  0  0  0  0  0  0  0
    2.1155   -0.8280    0.0000 C   0  0  0  0  0  0  0  0  0
    2.1443   -1.6525    0.0000 C   0  0  0  0  0  0  0  0  0
    1.4447   -2.0897    0.0000 C   0  0  0  0  0  0  0  0  0
    0.7163   -1.7024    0.0000 C   0  0  0  0  0  0  0  0  0
    0.6875   -0.8779    0.0000 C   0  0  0  0  0  0  0  0  0
    1.4735   -2.9142    0.0000 C   0  0  0  0  0  0  0  0  0
    2.2019   -3.3015    0.0000 C   0  0  0  0  0  0  0  0  0
    1.6940   -3.9516    0.0000 O   0  0  0  0  0  0  0  0  0
    2.4568   -2.5169    0.0000 C   0  0  0  0  0  0  0  0  0
    3.2638   -2.3454    0.0000 C   0  0  0  0  0  0  0  0  0
    3.8159   -2.9585    0.0000 N   0  0  0  0  0  0  0  0  0
    3.5609   -3.7431    0.0000 C   0  0  0  0  0  0  0  0  0
    2.7539   -3.9146    0.0000 C   0  0  0  0  0  0  0  0  0
    4.6228   -2.7870    0.0000 C   0  0  0  0  0  0  0  0  0
    4.8778   -2.0023    0.0000 C   0  0  0  0  0  0  0  0  0
    5.6624   -1.7474    0.0000 C   0  0  0  0  0  0  0  0  0
    5.6624   -0.9224    0.0000 C   0  0  0  0  0  0  0  0  0
    4.8778   -0.6675    0.0000 N   0  0  0  0  0  0  0  0  0
    4.3928   -1.3349    0.0000 C   0  0  0  0  0  0  0  0  0
    6.3769   -0.5099    0.0000 C   0  0  0  0  0  0  0  0  0
    7.0913   -0.9224    0.0000 C   0  0  0  0  0  0  0  0  0
    7.0913   -1.7474    0.0000 C   0  0  0  0  0  0  0  0  0
    6.3769   -2.1599    0.0000 C   0  0  0  0  0  0  0  0  0
  1  2  1  0  0  0  0
  2  3  4  0  0  0  0
  2  7  4  0  0  0  0
  3  4  4  0  0  0  0
  4  5  4  0  0  0  0
  5  6  4  0  0  0  0
  5  8  1  0  0  0  0
  6  7  4  0  0  0  0
  8  9  1  0  0  0  0
  9 10  1  0  0  0  0
  9 11  1  0  0  0  0
  9 15  1  0  0  0  0
 11 12  1  0  0  0  0
 12 13  1  0  0  0  0
 13 14  1  0  0  0  0
 13 16  1  0  0  0  0
 14 15  1  0  0  0  0
 16 17  1  0  0  0  0
 17 18  4  0  0  0  0
 17 21  4  0  0  0  0
 18 19  4  0  0  0  0
 18 25  4  0  0  0  0
 19 20  4  0  0  0  0
 19 22  4  0  0  0  0
 20 21  4  0  0  0  0
 22 23  4  0  0  0  0
 23 24  4  0  0  0  0
 24 25  4  0  0  0  0
M  STY  1   1 DAT
M  SAL   1  1  20
M  SDT   1 MRV_IMPLICIT_H                                        
M  SDD   1     0.0000    0.0000    DR    ALL  0       0  
M  SED   1 IMPL_H1
M  END
>  <Name_Molregno>
407837

>  <DOPAMINE D2>
5.54

>  <DOPAMINE D3>
5.26

>  <DOPAMINE D4>
5.41

$$$$
407839
  Marvin  02231216192D 0   1.00000     0.00000     0

 24 27  0  0  1  0  0  0  0  0999 V2000
    0.7486   -2.6789    0.0000 Cl  0  0  0  0  0  0  0  0  0
    1.4483   -2.2417    0.0000 C   0  0  0  0  0  0  0  0  0
    1.4195   -1.4172    0.0000 C   0  0  0  0  0  0  0  0  0
    2.1191   -0.9800    0.0000 C   0  0  0  0  0  0  0  0  0
    2.8476   -1.3673    0.0000 C   0  0  0  0  0  0  0  0  0
    2.8763   -2.1918    0.0000 C   0  0  0  0  0  0  0  0  0
    2.1767   -2.6290    0.0000 C   0  0  0  0  0  0  0  0  0
    3.5472   -0.9302    0.0000 C   0  0  0  0  0  0  0  0  0
    3.8562   -1.6951    0.0000 O   0  0  0  0  0  0  0  0  0
    2.9952   -0.3171    0.0000 C   0  0  0  0  0  0  0  0  0
    3.2501    0.4676    0.0000 C   0  0  0  0  0  0  0  0  0
    4.0571    0.6391    0.0000 C   0  0  0  0  0  0  0  0  0
    4.6091    0.0260    0.0000 N   0  0  0  0  0  0  0  0  0
    4.3542   -0.7586    0.0000 C   0  0  0  0  0  0  0  0  0
    5.4161    0.1975    0.0000 C   0  0  0  0  0  0  0  0  0
    5.6710    0.9821    0.0000 C   0  0  0  0  0  0  0  0  0
    6.4556    1.2371    0.0000 C   0  0  0  0  0  0  0  0  0
    6.4556    2.0621    0.0000 C   0  0  0  0  0  0  0  0  0
    5.6710    2.3170    0.0000 N   0  0  0  0  0  0  0  0  0
    5.1861    1.6496    0.0000 C   0  0  0  0  0  0  0  0  0
    7.1701    2.4746    0.0000 C   0  0  0  0  0  0  0  0  0
    7.8846    2.0621    0.0000 C   0  0  0  0  0  0  0  0  0
    7.8846    1.2371    0.0000 C   0  0  0  0  0  0  0  0  0
    7.1701    0.8246    0.0000 C   0  0  0  0  0  0  0  0  0
  1  2  1  0  0  0  0
  2  3  4  0  0  0  0
  2  7  4  0  0  0  0
  3  4  4  0  0  0  0
  4  5  4  0  0  0  0
  5  6  4  0  0  0  0
  5  8  1  0  0  0  0
  6  7  4  0  0  0  0
  8  9  1  0  0  0  0
  8 10  1  0  0  0  0
  8 14  1  0  0  0  0
 10 11  1  0  0  0  0
 11 12  1  0  0  0  0
 12 13  1  0  0  0  0
 13 14  1  0  0  0  0
 13 15  1  0  0  0  0
 15 16  1  0  0  0  0
 16 17  4  0  0  0  0
 16 20  4  0  0  0  0
 17 18  4  0  0  0  0
 17 24  4  0  0  0  0
 18 19  4  0  0  0  0
 18 21  4  0  0  0  0
 19 20  4  0  0  0  0
 21 22  4  0  0  0  0
 22 23  4  0  0  0  0
 23 24  4  0  0  0  0
M  STY  1   1 DAT
M  SAL   1  1  19
M  SDT   1 MRV_IMPLICIT_H                                        
M  SDD   1     0.0000    0.0000    DR    ALL  0       0  
M  SED   1 IMPL_H1
M  END
>  <Name_Molregno>
407839

>  <DOPAMINE D2>
5.37

>  <DOPAMINE D3>
5.37

>  <DOPAMINE D4>
5.61

$$$$
407842
  Marvin  02231216192D 0   1.00000     0.00000     0

 24 27  0  0  0  0  0  0  0  0999 V2000
    1.0618   -3.4700    0.0000 Cl  0  0  0  0  0  0  0  0  0
    1.5697   -2.8198    0.0000 C   0  0  0  0  0  0  0  0  0
    1.2607   -2.0549    0.0000 C   0  0  0  0  0  0  0  0  0
    1.7686   -1.4048    0.0000 C   0  0  0  0  0  0  0  0  0
    2.5856   -1.5196    0.0000 C   0  0  0  0  0  0  0  0  0
    2.8946   -2.2846    0.0000 C   0  0  0  0  0  0  0  0  0
    2.3867   -2.9347    0.0000 C   0  0  0  0  0  0  0  0  0
    3.0935   -0.8695    0.0000 C   0  0  0  0  0  0  0  0  0
    3.3484   -0.0849    0.0000 C   0  0  0  0  0  0  0  0  0
    4.1554    0.0866    0.0000 C   0  0  0  0  0  0  0  0  0
    4.7074   -0.5265    0.0000 N   0  0  0  0  0  0  0  0  0
    4.4525   -1.3111    0.0000 C   0  0  0  0  0  0  0  0  0
    3.6455   -1.4826    0.0000 C   0  0  0  0  0  0  0  0  0
    5.5144   -0.3549    0.0000 C   0  0  0  0  0  0  0  0  0
    5.7693    0.4297    0.0000 C   0  0  0  0  0  0  0  0  0
    6.5540    0.6846    0.0000 C   0  0  0  0  0  0  0  0  0
    6.5540    1.5096    0.0000 C   0  0  0  0  0  0  0  0  0
    5.7693    1.7646    0.0000 N   0  0  0  0  0  0  0  0  0
    5.2844    1.0971    0.0000 C   0  0  0  0  0  0  0  0  0
    7.2684    1.9221    0.0000 C   0  0  0  0  0  0  0  0  0
    7.9829    1.5096    0.0000 C   0  0  0  0  0  0  0  0  0
    7.9829    0.6846    0.0000 C   0  0  0  0  0  0  0  0  0
    7.2684    0.2721    0.0000 C   0  0  0  0  0  0  0  0  0
    2.3651   -0.4822    0.0000 C   0  0  0  0  0  0  0  0  0
  1  2  1  0  0  0  0
  2  3  4  0  0  0  0
  2  7  4  0  0  0  0
  3  4  4  0  0  0  0
  4  5  4  0  0  0  0
  5  6  4  0  0  0  0
  5  8  1  0  0  0  0
  6  7  4  0  0  0  0
  8  9  1  0  0  0  0
  8 13  1  0  0  0  0
  8 24  1  0  0  0  0
  9 10  1  0  0  0  0
 10 11  1  0  0  0  0
 11 12  1  0  0  0  0
 11 14  1  0  0  0  0
 12 13  1  0  0  0  0
 14 15  1  0  0  0  0
 15 16  4  0  0  0  0
 15 19  4  0  0  0  0
 16 17  4  0  0  0  0
 16 23  4  0  0  0  0
 17 18  4  0  0  0  0
 17 20  4  0  0  0  0
 18 19  4  0  0  0  0
 20 21  4  0  0  0  0
 21 22  4  0  0  0  0
 22 23  4  0  0  0  0
M  STY  1   1 DAT
M  SAL   1  1  18
M  SDT   1 MRV_IMPLICIT_H                                        
M  SDD   1     0.0000    0.0000    DR    ALL  0       0  
M  SED   1 IMPL_H1
M  END
>  <Name_Molregno>
407842

>  <DOPAMINE D2>
6

>  <DOPAMINE D3>
5.68

>  <DOPAMINE D4>
5.56

$$$$
407843
  Marvin  02231216192D 0   1.00000     0.00000     0

 24 27  0  0  0  0  0  0  0  0999 V2000
    0.3176    0.0313    0.0000 Cl  0  0  0  0  0  0  0  0  0
    1.0460   -0.3560    0.0000 C   0  0  0  0  0  0  0  0  0
    1.7457    0.0812    0.0000 C   0  0  0  0  0  0  0  0  0
    2.4741   -0.3061    0.0000 C   0  0  0  0  0  0  0  0  0
    2.5029   -1.1306    0.0000 C   0  0  0  0  0  0  0  0  0
    1.8032   -1.5678    0.0000 C   0  0  0  0  0  0  0  0  0
    1.0748   -1.1805    0.0000 C   0  0  0  0  0  0  0  0  0
    3.2313   -1.5179    0.0000 C   0  0  0  0  0  0  0  0  0
    2.7234   -2.1680    0.0000 N   0  0  0  0  0  0  0  0  0
    3.4863   -0.7333    0.0000 C   0  0  0  0  0  0  0  0  0
    4.2932   -0.5618    0.0000 C   0  0  0  0  0  0  0  0  0
    4.8453   -1.1749    0.0000 N   0  0  0  0  0  0  0  0  0
    4.5903   -1.9595    0.0000 C   0  0  0  0  0  0  0  0  0
    3.7833   -2.1310    0.0000 C   0  0  0  0  0  0  0  0  0
    5.6522   -1.0033    0.0000 C   0  0  0  0  0  0  0  0  0
    5.9072   -0.2187    0.0000 C   0  0  0  0  0  0  0  0  0
    6.6918    0.0362    0.0000 C   0  0  0  0  0  0  0  0  0
    6.6918    0.8612    0.0000 C   0  0  0  0  0  0  0  0  0
    5.9072    1.1162    0.0000 N   0  0  0  0  0  0  0  0  0
    5.4222    0.4487    0.0000 C   0  0  0  0  0  0  0  0  0
    7.4063    1.2737    0.0000 C   0  0  0  0  0  0  0  0  0
    8.1207    0.8612    0.0000 C   0  0  0  0  0  0  0  0  0
    8.1207    0.0362    0.0000 C   0  0  0  0  0  0  0  0  0
    7.4063   -0.3763    0.0000 C   0  0  0  0  0  0  0  0  0
  1  2  1  0  0  0  0
  2  3  4  0  0  0  0
  2  7  4  0  0  0  0
  3  4  4  0  0  0  0
  4  5  4  0  0  0  0
  5  6  4  0  0  0  0
  5  8  1  0  0  0  0
  6  7  4  0  0  0  0
  8  9  1  0  0  0  0
  8 10  1  0  0  0  0
  8 14  1  0  0  0  0
 10 11  1  0  0  0  0
 11 12  1  0  0  0  0
 12 13  1  0  0  0  0
 12 15  1  0  0  0  0
 13 14  1  0  0  0  0
 15 16  1  0  0  0  0
 16 17  4  0  0  0  0
 16 20  4  0  0  0  0
 17 18  4  0  0  0  0
 17 24  4  0  0  0  0
 18 19  4  0  0  0  0
 18 21  4  0  0  0  0
 19 20  4  0  0  0  0
 21 22  4  0  0  0  0
 22 23  4  0  0  0  0
 23 24  4  0  0  0  0
M  STY  1   1 DAT
M  SAL   1  1  19
M  SDT   1 MRV_IMPLICIT_H                                        
M  SDD   1     0.0000    0.0000    DR    ALL  0       0  
M  SED   1 IMPL_H1
M  END
>  <Name_Molregno>
407843

>  <DOPAMINE D2>
6.74

>  <DOPAMINE D3>
6.42

>  <DOPAMINE D4>
5.64

$$$$
407844
  Marvin  02231216192D 0   1.00000     0.00000     0

 27 30  0  0  0  0  0  0  0  0999 V2000
   -1.2308    3.7608    0.0000 Cl  0  0  0  0  0  0  0  0  0
   -0.5024    3.3735    0.0000 C   0  0  0  0  0  0  0  0  0
    0.1972    3.8107    0.0000 C   0  0  0  0  0  0  0  0  0
    0.9257    3.4234    0.0000 C   0  0  0  0  0  0  0  0  0
    0.9545    2.5989    0.0000 C   0  0  0  0  0  0  0  0  0
    0.2548    2.1617    0.0000 C   0  0  0  0  0  0  0  0  0
   -0.4736    2.5490    0.0000 C   0  0  0  0  0  0  0  0  0
    1.6829    2.2115    0.0000 C   0  0  0  0  0  0  0  0  0
    1.1750    1.5614    0.0000 N   0  0  0  0  0  0  0  0  0
    1.4840    0.7965    0.0000 C   0  0  0  0  0  0  0  0  0
    2.3010    0.6817    0.0000 O   0  0  0  0  0  0  0  0  0
    0.9761    0.1464    0.0000 C   0  0  0  0  0  0  0  0  0
    1.9378    2.9962    0.0000 C   0  0  0  0  0  0  0  0  0
    2.7448    3.1677    0.0000 C   0  0  0  0  0  0  0  0  0
    3.2968    2.5546    0.0000 N   0  0  0  0  0  0  0  0  0
    3.0419    1.7700    0.0000 C   0  0  0  0  0  0  0  0  0
    2.2349    1.5984    0.0000 C   0  0  0  0  0  0  0  0  0
    4.1038    2.7261    0.0000 C   0  0  0  0  0  0  0  0  0
    4.3587    3.5107    0.0000 C   0  0  0  0  0  0  0  0  0
    5.1434    3.7657    0.0000 C   0  0  0  0  0  0  0  0  0
    5.1434    4.5907    0.0000 C   0  0  0  0  0  0  0  0  0
    4.3587    4.8456    0.0000 N   0  0  0  0  0  0  0  0  0
    3.8738    4.1782    0.0000 C   0  0  0  0  0  0  0  0  0
    5.8578    5.0032    0.0000 C   0  0  0  0  0  0  0  0  0
    6.5723    4.5907    0.0000 C   0  0  0  0  0  0  0  0  0
    6.5723    3.7657    0.0000 C   0  0  0  0  0  0  0  0  0
    5.8578    3.3532    0.0000 C   0  0  0  0  0  0  0  0  0
  1  2  1  0  0  0  0
  2  3  4  0  0  0  0
  2  7  4  0  0  0  0
  3  4  4  0  0  0  0
  4  5  4  0  0  0  0
  5  6  4  0  0  0  0
  5  8  1  0  0  0  0
  6  7  4  0  0  0  0
  8  9  1  0  0  0  0
  8 13  1  0  0  0  0
  8 17  1  0  0  0  0
  9 10  1  0  0  0  0
 10 11  2  0  0  0  0
 10 12  1  0  0  0  0
 13 14  1  0  0  0  0
 14 15  1  0  0  0  0
 15 16  1  0  0  0  0
 15 18  1  0  0  0  0
 16 17  1  0  0  0  0
 18 19  1  0  0  0  0
 19 20  4  0  0  0  0
 19 23  4  0  0  0  0
 20 21  4  0  0  0  0
 20 27  4  0  0  0  0
 21 22  4  0  0  0  0
 21 24  4  0  0  0  0
 22 23  4  0  0  0  0
 24 25  4  0  0  0  0
 25 26  4  0  0  0  0
 26 27  4  0  0  0  0
M  STY  1   1 DAT
M  SAL   1  1  22
M  SDT   1 MRV_IMPLICIT_H                                        
M  SDD   1     0.0000    0.0000    DR    ALL  0       0  
M  SED   1 IMPL_H1
M  END
>  <Name_Molregno>
407844

>  <DOPAMINE D2>
7.08

>  <DOPAMINE D3>
6.71

>  <DOPAMINE D4>
6.46

$$$$
407845
  Marvin  02231216192D 0   1.00000     0.00000     0

 24 27  0  0  0  0  0  0  0  0999 V2000
    0.3176    0.0313    0.0000 Cl  0  0  0  0  0  0  0  0  0
    1.0460   -0.3560    0.0000 C   0  0  0  0  0  0  0  0  0
    1.7457    0.0812    0.0000 C   0  0  0  0  0  0  0  0  0
    2.4741   -0.3061    0.0000 C   0  0  0  0  0  0  0  0  0
    2.5029   -1.1306    0.0000 C   0  0  0  0  0  0  0  0  0
    1.8032   -1.5678    0.0000 C   0  0  0  0  0  0  0  0  0
    1.0748   -1.1805    0.0000 C   0  0  0  0  0  0  0  0  0
    3.2313   -1.5179    0.0000 C   0  0  0  0  0  0  0  0  0
    2.7234   -2.1680    0.0000 F   0  0  0  0  0  0  0  0  0
    3.4863   -0.7333    0.0000 C   0  0  0  0  0  0  0  0  0
    4.2932   -0.5618    0.0000 C   0  0  0  0  0  0  0  0  0
    4.8453   -1.1749    0.0000 N   0  0  0  0  0  0  0  0  0
    4.5903   -1.9595    0.0000 C   0  0  0  0  0  0  0  0  0
    3.7833   -2.1310    0.0000 C   0  0  0  0  0  0  0  0  0
    5.6522   -1.0033    0.0000 C   0  0  0  0  0  0  0  0  0
    5.9072   -0.2187    0.0000 C   0  0  0  0  0  0  0  0  0
    6.6918    0.0362    0.0000 C   0  0  0  0  0  0  0  0  0
    6.6918    0.8612    0.0000 C   0  0  0  0  0  0  0  0  0
    5.9072    1.1162    0.0000 N   0  0  0  0  0  0  0  0  0
    5.4222    0.4487    0.0000 C   0  0  0  0  0  0  0  0  0
    7.4063    1.2737    0.0000 C   0  0  0  0  0  0  0  0  0
    8.1207    0.8612    0.0000 C   0  0  0  0  0  0  0  0  0
    8.1207    0.0362    0.0000 C   0  0  0  0  0  0  0  0  0
    7.4063   -0.3763    0.0000 C   0  0  0  0  0  0  0  0  0
  1  2  1  0  0  0  0
  2  3  4  0  0  0  0
  2  7  4  0  0  0  0
  3  4  4  0  0  0  0
  4  5  4  0  0  0  0
  5  6  4  0  0  0  0
  5  8  1  0  0  0  0
  6  7  4  0  0  0  0
  8  9  1  0  0  0  0
  8 10  1  0  0  0  0
  8 14  1  0  0  0  0
 10 11  1  0  0  0  0
 11 12  1  0  0  0  0
 12 13  1  0  0  0  0
 12 15  1  0  0  0  0
 13 14  1  0  0  0  0
 15 16  1  0  0  0  0
 16 17  4  0  0  0  0
 16 20  4  0  0  0  0
 17 18  4  0  0  0  0
 17 24  4  0  0  0  0
 18 19  4  0  0  0  0
 18 21  4  0  0  0  0
 19 20  4  0  0  0  0
 21 22  4  0  0  0  0
 22 23  4  0  0  0  0
 23 24  4  0  0  0  0
M  STY  1   1 DAT
M  SAL   1  1  19
M  SDT   1 MRV_IMPLICIT_H                                        
M  SDD   1     0.0000    0.0000    DR    ALL  0       0  
M  SED   1 IMPL_H1
M  END
>  <Name_Molregno>
407845

>  <DOPAMINE D2>
6.92

>  <DOPAMINE D3>
6.68

>  <DOPAMINE D4>
6.44

$$$$
407846
  Marvin  02231216192D 0   1.00000     0.00000     0

 25 28  0  0  0  0  0  0  0  0999 V2000
    1.0948   -3.3909    0.0000 Cl  0  0  0  0  0  0  0  0  0
    1.6027   -2.7408    0.0000 C   0  0  0  0  0  0  0  0  0
    1.2936   -1.9759    0.0000 C   0  0  0  0  0  0  0  0  0
    1.8016   -1.3258    0.0000 C   0  0  0  0  0  0  0  0  0
    2.6185   -1.4406    0.0000 C   0  0  0  0  0  0  0  0  0
    2.9276   -2.2055    0.0000 C   0  0  0  0  0  0  0  0  0
    2.4197   -2.8557    0.0000 C   0  0  0  0  0  0  0  0  0
    3.1264   -0.7905    0.0000 C   0  0  0  0  0  0  0  0  0
    3.3814   -0.0059    0.0000 C   0  0  0  0  0  0  0  0  0
    4.1884    0.1656    0.0000 C   0  0  0  0  0  0  0  0  0
    4.7404   -0.4475    0.0000 N   0  0  0  0  0  0  0  0  0
    4.4855   -1.2321    0.0000 C   0  0  0  0  0  0  0  0  0
    3.6785   -1.4036    0.0000 C   0  0  0  0  0  0  0  0  0
    5.5474   -0.2759    0.0000 C   0  0  0  0  0  0  0  0  0
    5.8023    0.5087    0.0000 C   0  0  0  0  0  0  0  0  0
    6.5869    0.7636    0.0000 C   0  0  0  0  0  0  0  0  0
    6.5869    1.5886    0.0000 C   0  0  0  0  0  0  0  0  0
    5.8023    1.8436    0.0000 N   0  0  0  0  0  0  0  0  0
    5.3174    1.1761    0.0000 C   0  0  0  0  0  0  0  0  0
    7.3014    2.0011    0.0000 C   0  0  0  0  0  0  0  0  0
    8.0159    1.5886    0.0000 C   0  0  0  0  0  0  0  0  0
    8.0159    0.7636    0.0000 C   0  0  0  0  0  0  0  0  0
    7.3014    0.3511    0.0000 C   0  0  0  0  0  0  0  0  0
    2.3980   -0.4032    0.0000 C   0  0  0  0  0  0  0  0  0
    1.6696   -0.0159    0.0000 N   0  0  0  0  0  0  0  0  0
  1  2  1  0  0  0  0
  2  3  4  0  0  0  0
  2  7  4  0  0  0  0
  3  4  4  0  0  0  0
  4  5  4  0  0  0  0
  5  6  4  0  0  0  0
  5  8  1  0  0  0  0
  6  7  4  0  0  0  0
  8  9  1  0  0  0  0
  8 13  1  0  0  0  0
  8 24  1  0  0  0  0
  9 10  1  0  0  0  0
 10 11  1  0  0  0  0
 11 12  1  0  0  0  0
 11 14  1  0  0  0  0
 12 13  1  0  0  0  0
 14 15  1  0  0  0  0
 15 16  4  0  0  0  0
 15 19  4  0  0  0  0
 16 17  4  0  0  0  0
 16 23  4  0  0  0  0
 17 18  4  0  0  0  0
 17 20  4  0  0  0  0
 18 19  4  0  0  0  0
 20 21  4  0  0  0  0
 21 22  4  0  0  0  0
 22 23  4  0  0  0  0
 24 25  3  0  0  0  0
M  STY  1   1 DAT
M  SAL   1  1  18
M  SDT   1 MRV_IMPLICIT_H                                        
M  SDD   1     0.0000    0.0000    DR    ALL  0       0  
M  SED   1 IMPL_H1
M  END
>  <Name_Molregno>
407846

>  <DOPAMINE D2>
6.7

>  <DOPAMINE D3>
6.16

>  <DOPAMINE D4>
5.64

$$$$
407847
  Marvin  02231216192D 0   1.00000     0.00000     0

 27 30  0  0  0  0  0  0  0  0999 V2000
    1.1121   -2.5556    0.0000 Cl  0  0  0  0  0  0  0  0  0
    1.6200   -1.9055    0.0000 C   0  0  0  0  0  0  0  0  0
    1.3109   -1.1406    0.0000 C   0  0  0  0  0  0  0  0  0
    1.8189   -0.4905    0.0000 C   0  0  0  0  0  0  0  0  0
    2.6358   -0.6053    0.0000 C   0  0  0  0  0  0  0  0  0
    2.9449   -1.3702    0.0000 C   0  0  0  0  0  0  0  0  0
    2.4370   -2.0204    0.0000 C   0  0  0  0  0  0  0  0  0
    3.1438    0.0448    0.0000 C   0  0  0  0  0  0  0  0  0
    3.3987    0.8294    0.0000 C   0  0  0  0  0  0  0  0  0
    4.2057    1.0009    0.0000 C   0  0  0  0  0  0  0  0  0
    4.7577    0.3878    0.0000 N   0  0  0  0  0  0  0  0  0
    4.5028   -0.3968    0.0000 C   0  0  0  0  0  0  0  0  0
    3.6958   -0.5683    0.0000 C   0  0  0  0  0  0  0  0  0
    5.5647    0.5594    0.0000 C   0  0  0  0  0  0  0  0  0
    5.8196    1.3440    0.0000 C   0  0  0  0  0  0  0  0  0
    6.6042    1.5989    0.0000 C   0  0  0  0  0  0  0  0  0
    6.6042    2.4239    0.0000 C   0  0  0  0  0  0  0  0  0
    5.8196    2.6789    0.0000 N   0  0  0  0  0  0  0  0  0
    5.3347    2.0114    0.0000 C   0  0  0  0  0  0  0  0  0
    7.3187    2.8364    0.0000 C   0  0  0  0  0  0  0  0  0
    8.0332    2.4239    0.0000 C   0  0  0  0  0  0  0  0  0
    8.0332    1.5989    0.0000 C   0  0  0  0  0  0  0  0  0
    7.3187    1.1864    0.0000 C   0  0  0  0  0  0  0  0  0
    2.4153    0.4321    0.0000 C   0  0  0  0  0  0  0  0  0
    1.7157   -0.0051    0.0000 O   0  0  0  0  0  0  0  0  0
    0.9873    0.3822    0.0000 C   0  0  0  0  0  0  0  0  0
    2.3865    1.2566    0.0000 O   0  0  0  0  0  0  0  0  0
  1  2  1  0  0  0  0
  2  3  4  0  0  0  0
  2  7  4  0  0  0  0
  3  4  4  0  0  0  0
  4  5  4  0  0  0  0
  5  6  4  0  0  0  0
  5  8  1  0  0  0  0
  6  7  4  0  0  0  0
  8  9  1  0  0  0  0
  8 13  1  0  0  0  0
  8 24  1  0  0  0  0
  9 10  1  0  0  0  0
 10 11  1  0  0  0  0
 11 12  1  0  0  0  0
 11 14  1  0  0  0  0
 12 13  1  0  0  0  0
 14 15  1  0  0  0  0
 15 16  4  0  0  0  0
 15 19  4  0  0  0  0
 16 17  4  0  0  0  0
 16 23  4  0  0  0  0
 17 18  4  0  0  0  0
 17 20  4  0  0  0  0
 18 19  4  0  0  0  0
 20 21  4  0  0  0  0
 21 22  4  0  0  0  0
 22 23  4  0  0  0  0
 24 25  1  0  0  0  0
 24 27  2  0  0  0  0
 25 26  1  0  0  0  0
M  STY  1   1 DAT
M  SAL   1  1  18
M  SDT   1 MRV_IMPLICIT_H                                        
M  SDD   1     0.0000    0.0000    DR    ALL  0       0  
M  SED   1 IMPL_H1
M  END
>  <Name_Molregno>
407847

>  <DOPAMINE D2>
7.22

>  <DOPAMINE D3>
6.26

>  <DOPAMINE D4>
5.41

$$$$
407848
  Marvin  02231216192D 0   1.00000     0.00000     0

 28 31  0  0  0  0  0  0  0  0999 V2000
   -6.6867   -2.2461    0.0000 Cl  0  0  0  0  0  0  0  0  0
   -6.1788   -1.5959    0.0000 C   0  0  0  0  0  0  0  0  0
   -6.4879   -0.8310    0.0000 C   0  0  0  0  0  0  0  0  0
   -5.9799   -0.1809    0.0000 C   0  0  0  0  0  0  0  0  0
   -5.1630   -0.2957    0.0000 C   0  0  0  0  0  0  0  0  0
   -4.8539   -1.0607    0.0000 C   0  0  0  0  0  0  0  0  0
   -5.3618   -1.7108    0.0000 C   0  0  0  0  0  0  0  0  0
   -4.6551    0.3544    0.0000 C   0  0  0  0  0  0  0  0  0
   -4.4001    1.1390    0.0000 C   0  0  0  0  0  0  0  0  0
   -3.5931    1.3105    0.0000 C   0  0  0  0  0  0  0  0  0
   -3.0411    0.6974    0.0000 N   0  0  0  0  0  0  0  0  0
   -3.2960   -0.0872    0.0000 C   0  0  0  0  0  0  0  0  0
   -4.1030   -0.2587    0.0000 C   0  0  0  0  0  0  0  0  0
   -2.2341    0.8690    0.0000 C   0  0  0  0  0  0  0  0  0
   -1.9792    1.6536    0.0000 C   0  0  0  0  0  0  0  0  0
   -1.1946    1.9085    0.0000 C   0  0  0  0  0  0  0  0  0
   -1.1946    2.7335    0.0000 C   0  0  0  0  0  0  0  0  0
   -1.9792    2.9885    0.0000 N   0  0  0  0  0  0  0  0  0
   -2.4641    2.3210    0.0000 C   0  0  0  0  0  0  0  0  0
   -0.4801    3.1460    0.0000 C   0  0  0  0  0  0  0  0  0
    0.2344    2.7335    0.0000 C   0  0  0  0  0  0  0  0  0
    0.2344    1.9085    0.0000 C   0  0  0  0  0  0  0  0  0
   -0.4801    1.4960    0.0000 C   0  0  0  0  0  0  0  0  0
   -5.3835    0.7417    0.0000 C   0  0  0  0  0  0  0  0  0
   -5.4123    1.5662    0.0000 O   0  0  0  0  0  0  0  0  0
   -6.1407    1.9535    0.0000 C   0  0  0  0  0  0  0  0  0
   -6.1695    2.7780    0.0000 C   0  0  0  0  0  0  0  0  0
   -6.0831    0.3045    0.0000 O   0  0  0  0  0  0  0  0  0
  1  2  1  0  0  0  0
  2  3  4  0  0  0  0
  2  7  4  0  0  0  0
  3  4  4  0  0  0  0
  4  5  4  0  0  0  0
  5  6  4  0  0  0  0
  5  8  1  0  0  0  0
  6  7  4  0  0  0  0
  8  9  1  0  0  0  0
  8 13  1  0  0  0  0
  8 24  1  0  0  0  0
  9 10  1  0  0  0  0
 10 11  1  0  0  0  0
 11 12  1  0  0  0  0
 11 14  1  0  0  0  0
 12 13  1  0  0  0  0
 14 15  1  0  0  0  0
 15 16  4  0  0  0  0
 15 19  4  0  0  0  0
 16 17  4  0  0  0  0
 16 23  4  0  0  0  0
 17 18  4  0  0  0  0
 17 20  4  0  0  0  0
 18 19  4  0  0  0  0
 20 21  4  0  0  0  0
 21 22  4  0  0  0  0
 22 23  4  0  0  0  0
 24 25  1  0  0  0  0
 24 28  2  0  0  0  0
 25 26  1  0  0  0  0
 26 27  1  0  0  0  0
M  STY  1   1 DAT
M  SAL   1  1  18
M  SDT   1 MRV_IMPLICIT_H                                        
M  SDD   1     0.0000    0.0000    DR    ALL  0       0  
M  SED   1 IMPL_H1
M  END
>  <Name_Molregno>
407848

>  <DOPAMINE D2>
7.23

>  <DOPAMINE D3>
6.14

>  <DOPAMINE D4>
5.45

$$$$
407849
  Marvin  02231216192D 0   1.00000     0.00000     0

 25 28  0  0  0  0  0  0  0  0999 V2000
    1.0965   -3.4332    0.0000 Cl  0  0  0  0  0  0  0  0  0
    1.6045   -2.7831    0.0000 C   0  0  0  0  0  0  0  0  0
    1.2954   -2.0181    0.0000 C   0  0  0  0  0  0  0  0  0
    1.8033   -1.3680    0.0000 C   0  0  0  0  0  0  0  0  0
    2.6203   -1.4828    0.0000 C   0  0  0  0  0  0  0  0  0
    2.9294   -2.2478    0.0000 C   0  0  0  0  0  0  0  0  0
    2.4214   -2.8979    0.0000 C   0  0  0  0  0  0  0  0  0
    3.1282   -0.8327    0.0000 C   0  0  0  0  0  0  0  0  0
    3.3832   -0.0481    0.0000 C   0  0  0  0  0  0  0  0  0
    4.1901    0.1234    0.0000 C   0  0  0  0  0  0  0  0  0
    4.7422   -0.4897    0.0000 N   0  0  0  0  0  0  0  0  0
    4.4872   -1.2743    0.0000 C   0  0  0  0  0  0  0  0  0
    3.6803   -1.4458    0.0000 C   0  0  0  0  0  0  0  0  0
    5.5491   -0.3181    0.0000 C   0  0  0  0  0  0  0  0  0
    5.8041    0.4665    0.0000 C   0  0  0  0  0  0  0  0  0
    6.5887    0.7214    0.0000 C   0  0  0  0  0  0  0  0  0
    6.5887    1.5464    0.0000 C   0  0  0  0  0  0  0  0  0
    5.8041    1.8014    0.0000 N   0  0  0  0  0  0  0  0  0
    5.3192    1.1339    0.0000 C   0  0  0  0  0  0  0  0  0
    7.3032    1.9589    0.0000 C   0  0  0  0  0  0  0  0  0
    8.0176    1.5464    0.0000 C   0  0  0  0  0  0  0  0  0
    8.0176    0.7214    0.0000 C   0  0  0  0  0  0  0  0  0
    7.3032    0.3089    0.0000 C   0  0  0  0  0  0  0  0  0
    2.3998   -0.4454    0.0000 C   0  0  0  0  0  0  0  0  0
    2.3710    0.3791    0.0000 N   0  0  0  0  0  0  0  0  0
  1  2  1  0  0  0  0
  2  3  4  0  0  0  0
  2  7  4  0  0  0  0
  3  4  4  0  0  0  0
  4  5  4  0  0  0  0
  5  6  4  0  0  0  0
  5  8  1  0  0  0  0
  6  7  4  0  0  0  0
  8  9  1  0  0  0  0
  8 13  1  0  0  0  0
  8 24  1  0  0  0  0
  9 10  1  0  0  0  0
 10 11  1  0  0  0  0
 11 12  1  0  0  0  0
 11 14  1  0  0  0  0
 12 13  1  0  0  0  0
 14 15  1  0  0  0  0
 15 16  4  0  0  0  0
 15 19  4  0  0  0  0
 16 17  4  0  0  0  0
 16 23  4  0  0  0  0
 17 18  4  0  0  0  0
 17 20  4  0  0  0  0
 18 19  4  0  0  0  0
 20 21  4  0  0  0  0
 21 22  4  0  0  0  0
 22 23  4  0  0  0  0
 24 25  1  0  0  0  0
M  STY  1   1 DAT
M  SAL   1  1  18
M  SDT   1 MRV_IMPLICIT_H                                        
M  SDD   1     0.0000    0.0000    DR    ALL  0       0  
M  SED   1 IMPL_H1
M  END
>  <Name_Molregno>
407849

>  <DOPAMINE D2>
5

>  <DOPAMINE D3>
5.3

>  <DOPAMINE D4>
4.7

$$$$
407850
  Marvin  02231216192D 0   1.00000     0.00000     0

 28 31  0  0  0  0  0  0  0  0999 V2000
   -0.3763   -0.2517    0.0000 Cl  0  0  0  0  0  0  0  0  0
    0.1316    0.3984    0.0000 C   0  0  0  0  0  0  0  0  0
   -0.1775    1.1633    0.0000 C   0  0  0  0  0  0  0  0  0
    0.3305    1.8134    0.0000 C   0  0  0  0  0  0  0  0  0
    1.1474    1.6986    0.0000 C   0  0  0  0  0  0  0  0  0
    1.4565    0.9337    0.0000 C   0  0  0  0  0  0  0  0  0
    0.9486    0.2836    0.0000 C   0  0  0  0  0  0  0  0  0
    1.6553    2.3487    0.0000 C   0  0  0  0  0  0  0  0  0
    1.9103    3.1333    0.0000 C   0  0  0  0  0  0  0  0  0
    2.7173    3.3049    0.0000 C   0  0  0  0  0  0  0  0  0
    3.2693    2.6918    0.0000 N   0  0  0  0  0  0  0  0  0
    3.0144    1.9071    0.0000 C   0  0  0  0  0  0  0  0  0
    2.2074    1.7356    0.0000 C   0  0  0  0  0  0  0  0  0
    4.0763    2.8633    0.0000 C   0  0  0  0  0  0  0  0  0
    4.3312    3.6479    0.0000 C   0  0  0  0  0  0  0  0  0
    5.1158    3.9029    0.0000 C   0  0  0  0  0  0  0  0  0
    5.1158    4.7279    0.0000 C   0  0  0  0  0  0  0  0  0
    4.3312    4.9828    0.0000 N   0  0  0  0  0  0  0  0  0
    3.8463    4.3154    0.0000 C   0  0  0  0  0  0  0  0  0
    5.8303    5.1404    0.0000 C   0  0  0  0  0  0  0  0  0
    6.5448    4.7279    0.0000 C   0  0  0  0  0  0  0  0  0
    6.5448    3.9029    0.0000 C   0  0  0  0  0  0  0  0  0
    5.8303    3.4904    0.0000 C   0  0  0  0  0  0  0  0  0
    0.9269    2.7360    0.0000 C   0  0  0  0  0  0  0  0  0
    0.8981    3.5605    0.0000 N   0  0  0  0  0  0  0  0  0
    0.1697    3.9478    0.0000 C   0  0  0  0  0  0  0  0  0
   -0.5299    3.5107    0.0000 O   0  0  0  0  0  0  0  0  0
    0.1409    4.7723    0.0000 C   0  0  0  0  0  0  0  0  0
  1  2  1  0  0  0  0
  2  3  4  0  0  0  0
  2  7  4  0  0  0  0
  3  4  4  0  0  0  0
  4  5  4  0  0  0  0
  5  6  4  0  0  0  0
  5  8  1  0  0  0  0
  6  7  4  0  0  0  0
  8  9  1  0  0  0  0
  8 13  1  0  0  0  0
  8 24  1  0  0  0  0
  9 10  1  0  0  0  0
 10 11  1  0  0  0  0
 11 12  1  0  0  0  0
 11 14  1  0  0  0  0
 12 13  1  0  0  0  0
 14 15  1  0  0  0  0
 15 16  4  0  0  0  0
 15 19  4  0  0  0  0
 16 17  4  0  0  0  0
 16 23  4  0  0  0  0
 17 18  4  0  0  0  0
 17 20  4  0  0  0  0
 18 19  4  0  0  0  0
 20 21  4  0  0  0  0
 21 22  4  0  0  0  0
 22 23  4  0  0  0  0
 24 25  1  0  0  0  0
 25 26  1  0  0  0  0
 26 27  2  0  0  0  0
 26 28  1  0  0  0  0
M  STY  1   1 DAT
M  SAL   1  1  18
M  SDT   1 MRV_IMPLICIT_H                                        
M  SDD   1     0.0000    0.0000    DR    ALL  0       0  
M  SED   1 IMPL_H1
M  END
>  <Name_Molregno>
407850

>  <DOPAMINE D2>
5.7

>  <DOPAMINE D3>
4.9

>  <DOPAMINE D4>
5.35

$$$$
407851
  Marvin  02231216192D 0   1.00000     0.00000     0

 25 28  0  0  0  0  0  0  0  0999 V2000
    1.0965   -3.4332    0.0000 Cl  0  0  0  0  0  0  0  0  0
    1.6045   -2.7831    0.0000 C   0  0  0  0  0  0  0  0  0
    1.2954   -2.0181    0.0000 C   0  0  0  0  0  0  0  0  0
    1.8033   -1.3680    0.0000 C   0  0  0  0  0  0  0  0  0
    2.6203   -1.4828    0.0000 C   0  0  0  0  0  0  0  0  0
    2.9294   -2.2478    0.0000 C   0  0  0  0  0  0  0  0  0
    2.4214   -2.8979    0.0000 C   0  0  0  0  0  0  0  0  0
    3.1282   -0.8327    0.0000 C   0  0  0  0  0  0  0  0  0
    3.3832   -0.0481    0.0000 C   0  0  0  0  0  0  0  0  0
    4.1901    0.1234    0.0000 C   0  0  0  0  0  0  0  0  0
    4.7422   -0.4897    0.0000 N   0  0  0  0  0  0  0  0  0
    4.4872   -1.2743    0.0000 C   0  0  0  0  0  0  0  0  0
    3.6803   -1.4458    0.0000 C   0  0  0  0  0  0  0  0  0
    5.5491   -0.3181    0.0000 C   0  0  0  0  0  0  0  0  0
    5.8041    0.4665    0.0000 C   0  0  0  0  0  0  0  0  0
    6.5887    0.7214    0.0000 C   0  0  0  0  0  0  0  0  0
    6.5887    1.5464    0.0000 C   0  0  0  0  0  0  0  0  0
    5.8041    1.8014    0.0000 N   0  0  0  0  0  0  0  0  0
    5.3192    1.1339    0.0000 C   0  0  0  0  0  0  0  0  0
    7.3032    1.9589    0.0000 C   0  0  0  0  0  0  0  0  0
    8.0176    1.5464    0.0000 C   0  0  0  0  0  0  0  0  0
    8.0176    0.7214    0.0000 C   0  0  0  0  0  0  0  0  0
    7.3032    0.3089    0.0000 C   0  0  0  0  0  0  0  0  0
    2.3998   -0.4454    0.0000 C   0  0  0  0  0  0  0  0  0
    2.3710    0.3791    0.0000 O   0  0  0  0  0  0  0  0  0
  1  2  1  0  0  0  0
  2  3  4  0  0  0  0
  2  7  4  0  0  0  0
  3  4  4  0  0  0  0
  4  5  4  0  0  0  0
  5  6  4  0  0  0  0
  5  8  1  0  0  0  0
  6  7  4  0  0  0  0
  8  9  1  0  0  0  0
  8 13  1  0  0  0  0
  8 24  1  0  0  0  0
  9 10  1  0  0  0  0
 10 11  1  0  0  0  0
 11 12  1  0  0  0  0
 11 14  1  0  0  0  0
 12 13  1  0  0  0  0
 14 15  1  0  0  0  0
 15 16  4  0  0  0  0
 15 19  4  0  0  0  0
 16 17  4  0  0  0  0
 16 23  4  0  0  0  0
 17 18  4  0  0  0  0
 17 20  4  0  0  0  0
 18 19  4  0  0  0  0
 20 21  4  0  0  0  0
 21 22  4  0  0  0  0
 22 23  4  0  0  0  0
 24 25  1  0  0  0  0
M  STY  1   1 DAT
M  SAL   1  1  18
M  SDT   1 MRV_IMPLICIT_H                                        
M  SDD   1     0.0000    0.0000    DR    ALL  0       0  
M  SED   1 IMPL_H1
M  END
>  <Name_Molregno>
407851

>  <DOPAMINE D2>
5.63

>  <DOPAMINE D3>
6.97

>  <DOPAMINE D4>
5.71

$$$$
407852
  Marvin  02231216192D 0   1.00000     0.00000     0

 25 28  0  0  0  0  0  0  0  0999 V2000
    0.3245    0.1991    0.0000 Cl  0  0  0  0  0  0  0  0  0
    1.0529   -0.1882    0.0000 C   0  0  0  0  0  0  0  0  0
    1.7525    0.2490    0.0000 C   0  0  0  0  0  0  0  0  0
    2.4810   -0.1383    0.0000 C   0  0  0  0  0  0  0  0  0
    2.5098   -0.9628    0.0000 C   0  0  0  0  0  0  0  0  0
    1.8101   -1.4000    0.0000 C   0  0  0  0  0  0  0  0  0
    1.0817   -1.0127    0.0000 C   0  0  0  0  0  0  0  0  0
    3.2382   -1.3501    0.0000 C   0  0  0  0  0  0  0  0  0
    2.7303   -2.0002    0.0000 O   0  0  0  0  0  0  0  0  0
    3.0393   -2.7651    0.0000 C   0  0  0  0  0  0  0  0  0
    3.4931   -0.5655    0.0000 C   0  0  0  0  0  0  0  0  0
    4.3001   -0.3940    0.0000 C   0  0  0  0  0  0  0  0  0
    4.8521   -1.0071    0.0000 N   0  0  0  0  0  0  0  0  0
    4.5972   -1.7917    0.0000 C   0  0  0  0  0  0  0  0  0
    3.7902   -1.9632    0.0000 C   0  0  0  0  0  0  0  0  0
    5.6591   -0.8355    0.0000 C   0  0  0  0  0  0  0  0  0
    5.9141   -0.0509    0.0000 C   0  0  0  0  0  0  0  0  0
    6.6987    0.2040    0.0000 C   0  0  0  0  0  0  0  0  0
    6.6987    1.0290    0.0000 C   0  0  0  0  0  0  0  0  0
    5.9141    1.2840    0.0000 N   0  0  0  0  0  0  0  0  0
    5.4291    0.6165    0.0000 C   0  0  0  0  0  0  0  0  0
    7.4131    1.4415    0.0000 C   0  0  0  0  0  0  0  0  0
    8.1276    1.0290    0.0000 C   0  0  0  0  0  0  0  0  0
    8.1276    0.2040    0.0000 C   0  0  0  0  0  0  0  0  0
    7.4131   -0.2085    0.0000 C   0  0  0  0  0  0  0  0  0
  1  2  1  0  0  0  0
  2  3  4  0  0  0  0
  2  7  4  0  0  0  0
  3  4  4  0  0  0  0
  4  5  4  0  0  0  0
  5  6  4  0  0  0  0
  5  8  1  0  0  0  0
  6  7  4  0  0  0  0
  8  9  1  0  0  0  0
  8 11  1  0  0  0  0
  8 15  1  0  0  0  0
  9 10  1  0  0  0  0
 11 12  1  0  0  0  0
 12 13  1  0  0  0  0
 13 14  1  0  0  0  0
 13 16  1  0  0  0  0
 14 15  1  0  0  0  0
 16 17  1  0  0  0  0
 17 18  4  0  0  0  0
 17 21  4  0  0  0  0
 18 19  4  0  0  0  0
 18 25  4  0  0  0  0
 19 20  4  0  0  0  0
 19 22  4  0  0  0  0
 20 21  4  0  0  0  0
 22 23  4  0  0  0  0
 23 24  4  0  0  0  0
 24 25  4  0  0  0  0
M  STY  1   1 DAT
M  SAL   1  1  20
M  SDT   1 MRV_IMPLICIT_H                                        
M  SDD   1     0.0000    0.0000    DR    ALL  0       0  
M  SED   1 IMPL_H1
M  END
>  <Name_Molregno>
407852

>  <DOPAMINE D2>
7.17

>  <DOPAMINE D3>
6.58

>  <DOPAMINE D4>
7.47

$$$$
407853
  Marvin  02231216192D 0   1.00000     0.00000     0

 27 30  0  0  0  0  0  0  0  0999 V2000
   -1.3484    3.7666    0.0000 Cl  0  0  0  0  0  0  0  0  0
   -0.6199    3.3792    0.0000 C   0  0  0  0  0  0  0  0  0
    0.0797    3.8164    0.0000 C   0  0  0  0  0  0  0  0  0
    0.8081    3.4291    0.0000 C   0  0  0  0  0  0  0  0  0
    0.8369    2.6046    0.0000 C   0  0  0  0  0  0  0  0  0
    0.1373    2.1674    0.0000 C   0  0  0  0  0  0  0  0  0
   -0.5911    2.5548    0.0000 C   0  0  0  0  0  0  0  0  0
    1.5654    2.2173    0.0000 C   0  0  0  0  0  0  0  0  0
    1.0574    1.5672    0.0000 O   0  0  0  0  0  0  0  0  0
    1.3665    0.8023    0.0000 C   0  0  0  0  0  0  0  0  0
    2.1835    0.6875    0.0000 C   0  0  0  0  0  0  0  0  0
    2.4925   -0.0775    0.0000 C   0  0  0  0  0  0  0  0  0
    1.8203    3.0019    0.0000 C   0  0  0  0  0  0  0  0  0
    2.6273    3.1735    0.0000 C   0  0  0  0  0  0  0  0  0
    3.1793    2.5604    0.0000 N   0  0  0  0  0  0  0  0  0
    2.9244    1.7757    0.0000 C   0  0  0  0  0  0  0  0  0
    2.1174    1.6042    0.0000 C   0  0  0  0  0  0  0  0  0
    3.9863    2.7319    0.0000 C   0  0  0  0  0  0  0  0  0
    4.2412    3.5165    0.0000 C   0  0  0  0  0  0  0  0  0
    5.0258    3.7714    0.0000 C   0  0  0  0  0  0  0  0  0
    5.0258    4.5964    0.0000 C   0  0  0  0  0  0  0  0  0
    4.2412    4.8514    0.0000 N   0  0  0  0  0  0  0  0  0
    3.7563    4.1839    0.0000 C   0  0  0  0  0  0  0  0  0
    5.7403    5.0089    0.0000 C   0  0  0  0  0  0  0  0  0
    6.4548    4.5964    0.0000 C   0  0  0  0  0  0  0  0  0
    6.4548    3.7714    0.0000 C   0  0  0  0  0  0  0  0  0
    5.7403    3.3589    0.0000 C   0  0  0  0  0  0  0  0  0
  1  2  1  0  0  0  0
  2  3  4  0  0  0  0
  2  7  4  0  0  0  0
  3  4  4  0  0  0  0
  4  5  4  0  0  0  0
  5  6  4  0  0  0  0
  5  8  1  0  0  0  0
  6  7  4  0  0  0  0
  8  9  1  0  0  0  0
  8 13  1  0  0  0  0
  8 17  1  0  0  0  0
  9 10  1  0  0  0  0
 10 11  1  0  0  0  0
 11 12  2  0  0  0  0
 13 14  1  0  0  0  0
 14 15  1  0  0  0  0
 15 16  1  0  0  0  0
 15 18  1  0  0  0  0
 16 17  1  0  0  0  0
 18 19  1  0  0  0  0
 19 20  4  0  0  0  0
 19 23  4  0  0  0  0
 20 21  4  0  0  0  0
 20 27  4  0  0  0  0
 21 22  4  0  0  0  0
 21 24  4  0  0  0  0
 22 23  4  0  0  0  0
 24 25  4  0  0  0  0
 25 26  4  0  0  0  0
 26 27  4  0  0  0  0
M  STY  1   1 DAT
M  SAL   1  1  22
M  SDT   1 MRV_IMPLICIT_H                                        
M  SDD   1     0.0000    0.0000    DR    ALL  0       0  
M  SED   1 IMPL_H1
M  END
>  <Name_Molregno>
407853

>  <DOPAMINE D2>
6.78

>  <DOPAMINE D3>
6.14

>  <DOPAMINE D4>
5.92

$$$$
407854
  Marvin  02231216192D 0   1.00000     0.00000     0

 25 28  0  0  0  0  0  0  0  0999 V2000
    0.3575    0.0796    0.0000 Cl  0  0  0  0  0  0  0  0  0
    1.0859   -0.3077    0.0000 C   0  0  0  0  0  0  0  0  0
    1.7855    0.1294    0.0000 C   0  0  0  0  0  0  0  0  0
    2.5140   -0.2579    0.0000 C   0  0  0  0  0  0  0  0  0
    2.5428   -1.0824    0.0000 C   0  0  0  0  0  0  0  0  0
    1.8431   -1.5196    0.0000 C   0  0  0  0  0  0  0  0  0
    1.1147   -1.1322    0.0000 C   0  0  0  0  0  0  0  0  0
    3.2712   -1.4697    0.0000 C   0  0  0  0  0  0  0  0  0
    2.7633   -2.1198    0.0000 O   0  0  0  0  0  0  0  0  0
    3.5261   -0.6851    0.0000 C   0  0  0  0  0  0  0  0  0
    4.3331   -0.5135    0.0000 C   0  0  0  0  0  0  0  0  0
    4.8851   -1.1266    0.0000 N   0  0  0  0  0  0  0  0  0
    4.6302   -1.9113    0.0000 C   0  0  0  0  0  0  0  0  0
    3.8232   -2.0828    0.0000 C   0  0  0  0  0  0  0  0  0
    5.6921   -0.9551    0.0000 C   0  0  0  0  0  0  0  0  0
    5.9471   -0.1705    0.0000 C   0  0  0  0  0  0  0  0  0
    6.7317    0.0845    0.0000 C   0  0  0  0  0  0  0  0  0
    6.7317    0.9095    0.0000 C   0  0  0  0  0  0  0  0  0
    5.9471    1.1644    0.0000 N   0  0  0  0  0  0  0  0  0
    5.4621    0.4970    0.0000 C   0  0  0  0  0  0  0  0  0
    4.6371    0.4970    0.0000 C   0  0  0  0  0  0  0  0  0
    7.4461    1.3220    0.0000 C   0  0  0  0  0  0  0  0  0
    8.1606    0.9095    0.0000 C   0  0  0  0  0  0  0  0  0
    8.1606    0.0845    0.0000 C   0  0  0  0  0  0  0  0  0
    7.4461   -0.3280    0.0000 C   0  0  0  0  0  0  0  0  0
  1  2  1  0  0  0  0
  2  3  4  0  0  0  0
  2  7  4  0  0  0  0
  3  4  4  0  0  0  0
  4  5  4  0  0  0  0
  5  6  4  0  0  0  0
  5  8  1  0  0  0  0
  6  7  4  0  0  0  0
  8  9  1  0  0  0  0
  8 10  1  0  0  0  0
  8 14  1  0  0  0  0
 10 11  1  0  0  0  0
 11 12  1  0  0  0  0
 12 13  1  0  0  0  0
 12 15  1  0  0  0  0
 13 14  1  0  0  0  0
 15 16  1  0  0  0  0
 16 17  4  0  0  0  0
 16 20  4  0  0  0  0
 17 18  4  0  0  0  0
 17 25  4  0  0  0  0
 18 19  4  0  0  0  0
 18 22  4  0  0  0  0
 19 20  4  0  0  0  0
 20 21  1  0  0  0  0
 22 23  4  0  0  0  0
 23 24  4  0  0  0  0
 24 25  4  0  0  0  0
M  STY  1   1 DAT
M  SAL   1  1  19
M  SDT   1 MRV_IMPLICIT_H                                        
M  SDD   1     0.0000    0.0000    DR    ALL  0       0  
M  SED   1 IMPL_H1
M  END
>  <Name_Molregno>
407854

>  <DOPAMINE D2>
7.81

>  <DOPAMINE D3>
7.36

>  <DOPAMINE D4>
5.52

$$$$
407855
  Marvin  02231216192D 0   1.00000     0.00000     0

 25 28  0  0  0  0  0  0  0  0999 V2000
   -5.4943    3.2842    0.0000 Cl  0  0  0  0  0  0  0  0  0
   -5.8034    2.5192    0.0000 C   0  0  0  0  0  0  0  0  0
   -5.2954    1.8691    0.0000 C   0  0  0  0  0  0  0  0  0
   -5.6045    1.1042    0.0000 C   0  0  0  0  0  0  0  0  0
   -6.4215    0.9894    0.0000 C   0  0  0  0  0  0  0  0  0
   -6.9294    1.6395    0.0000 C   0  0  0  0  0  0  0  0  0
   -6.6203    2.4044    0.0000 C   0  0  0  0  0  0  0  0  0
   -7.1283    3.0545    0.0000 Cl  0  0  0  0  0  0  0  0  0
   -5.0966    0.4541    0.0000 C   0  0  0  0  0  0  0  0  0
   -5.8250    0.0668    0.0000 O   0  0  0  0  0  0  0  0  0
   -4.5445    1.0672    0.0000 C   0  0  0  0  0  0  0  0  0
   -3.7376    0.8957    0.0000 C   0  0  0  0  0  0  0  0  0
   -3.4826    0.1110    0.0000 N   0  0  0  0  0  0  0  0  0
   -4.0347   -0.5021    0.0000 C   0  0  0  0  0  0  0  0  0
   -4.8416   -0.3305    0.0000 C   0  0  0  0  0  0  0  0  0
   -2.6757   -0.0605    0.0000 C   0  0  0  0  0  0  0  0  0
   -2.4207   -0.8451    0.0000 C   0  0  0  0  0  0  0  0  0
   -2.9056   -1.5126    0.0000 N   0  0  0  0  0  0  0  0  0
   -2.4207   -2.1800    0.0000 N   0  0  0  0  0  0  0  0  0
   -1.6361   -1.9251    0.0000 C   0  0  0  0  0  0  0  0  0
   -1.6361   -1.1001    0.0000 C   0  0  0  0  0  0  0  0  0
   -0.9216   -0.6876    0.0000 C   0  0  0  0  0  0  0  0  0
   -0.2072   -1.1001    0.0000 C   0  0  0  0  0  0  0  0  0
   -0.2072   -1.9251    0.0000 C   0  0  0  0  0  0  0  0  0
   -0.9216   -2.3376    0.0000 C   0  0  0  0  0  0  0  0  0
  1  2  1  0  0  0  0
  2  3  4  0  0  0  0
  2  7  4  0  0  0  0
  3  4  4  0  0  0  0
  4  5  4  0  0  0  0
  4  9  1  0  0  0  0
  5  6  4  0  0  0  0
  6  7  4  0  0  0  0
  7  8  1  0  0  0  0
  9 10  1  0  0  0  0
  9 11  1  0  0  0  0
  9 15  1  0  0  0  0
 11 12  1  0  0  0  0
 12 13  1  0  0  0  0
 13 14  1  0  0  0  0
 13 16  1  0  0  0  0
 14 15  1  0  0  0  0
 16 17  1  0  0  0  0
 17 18  4  0  0  0  0
 17 21  4  0  0  0  0
 18 19  4  0  0  0  0
 19 20  4  0  0  0  0
 20 21  4  0  0  0  0
 20 25  4  0  0  0  0
 21 22  4  0  0  0  0
 22 23  4  0  0  0  0
 23 24  4  0  0  0  0
 24 25  4  0  0  0  0
M  STY  1   1 DAT
M  SAL   1  1  19
M  SDT   1 MRV_IMPLICIT_H                                        
M  SDD   1     0.0000    0.0000    DR    ALL  0       0  
M  SED   1 IMPL_H1
M  END
>  <Name_Molregno>
407855

>  <DOPAMINE D2>
6.36

>  <DOPAMINE D3>
6.81

>  <DOPAMINE D4>
6.17

$$$$
407856
  Marvin  02231216192D 0   1.00000     0.00000     0

 24 27  0  0  0  0  0  0  0  0999 V2000
    1.0618    3.4700    0.0000 Cl  0  0  0  0  0  0  0  0  0
    1.5697    2.8198    0.0000 C   0  0  0  0  0  0  0  0  0
    2.3867    2.9347    0.0000 C   0  0  0  0  0  0  0  0  0
    2.8946    2.2846    0.0000 C   0  0  0  0  0  0  0  0  0
    2.5856    1.5196    0.0000 C   0  0  0  0  0  0  0  0  0
    1.7686    1.4048    0.0000 C   0  0  0  0  0  0  0  0  0
    1.2607    2.0549    0.0000 C   0  0  0  0  0  0  0  0  0
    3.0935    0.8695    0.0000 C   0  0  0  0  0  0  0  0  0
    2.3651    0.4822    0.0000 O   0  0  0  0  0  0  0  0  0
    3.6455    1.4826    0.0000 C   0  0  0  0  0  0  0  0  0
    4.4525    1.3111    0.0000 C   0  0  0  0  0  0  0  0  0
    4.7074    0.5265    0.0000 N   0  0  0  0  0  0  0  0  0
    4.1554   -0.0866    0.0000 C   0  0  0  0  0  0  0  0  0
    3.3484    0.0849    0.0000 C   0  0  0  0  0  0  0  0  0
    5.5144    0.3549    0.0000 C   0  0  0  0  0  0  0  0  0
    5.7693   -0.4297    0.0000 C   0  0  0  0  0  0  0  0  0
    5.2844   -1.0971    0.0000 N   0  0  0  0  0  0  0  0  0
    5.7693   -1.7646    0.0000 N   0  0  0  0  0  0  0  0  0
    6.5540   -1.5096    0.0000 C   0  0  0  0  0  0  0  0  0
    6.5540   -0.6846    0.0000 C   0  0  0  0  0  0  0  0  0
    7.2684   -0.2721    0.0000 C   0  0  0  0  0  0  0  0  0
    7.9829   -0.6846    0.0000 C   0  0  0  0  0  0  0  0  0
    7.9829   -1.5096    0.0000 C   0  0  0  0  0  0  0  0  0
    7.2684   -1.9221    0.0000 C   0  0  0  0  0  0  0  0  0
  1  2  1  0  0  0  0
  2  3  4  0  0  0  0
  2  7  4  0  0  0  0
  3  4  4  0  0  0  0
  4  5  4  0  0  0  0
  5  6  4  0  0  0  0
  5  8  1  0  0  0  0
  6  7  4  0  0  0  0
  8  9  1  0  0  0  0
  8 10  1  0  0  0  0
  8 14  1  0  0  0  0
 10 11  1  0  0  0  0
 11 12  1  0  0  0  0
 12 13  1  0  0  0  0
 12 15  1  0  0  0  0
 13 14  1  0  0  0  0
 15 16  1  0  0  0  0
 16 17  4  0  0  0  0
 16 20  4  0  0  0  0
 17 18  4  0  0  0  0
 18 19  4  0  0  0  0
 19 20  4  0  0  0  0
 19 24  4  0  0  0  0
 20 21  4  0  0  0  0
 21 22  4  0  0  0  0
 22 23  4  0  0  0  0
 23 24  4  0  0  0  0
M  STY  1   1 DAT
M  SAL   1  1  18
M  SDT   1 MRV_IMPLICIT_H                                        
M  SDD   1     0.0000    0.0000    DR    ALL  0       0  
M  SED   1 IMPL_H1
M  END
>  <Name_Molregno>
407856

>  <DOPAMINE D2>
6.26

>  <DOPAMINE D3>
6.36

>  <DOPAMINE D4>
5.67

$$$$
407857
  Marvin  02231216192D 0   1.00000     0.00000     0

 25 28  0  0  0  0  0  0  0  0999 V2000
    1.3109    1.5332    0.0000 Cl  0  0  0  0  0  0  0  0  0
    1.3397    0.7087    0.0000 C   0  0  0  0  0  0  0  0  0
    2.0682    0.3214    0.0000 C   0  0  0  0  0  0  0  0  0
    2.0969   -0.5031    0.0000 C   0  0  0  0  0  0  0  0  0
    1.3973   -0.9403    0.0000 C   0  0  0  0  0  0  0  0  0
    0.6689   -0.5530    0.0000 C   0  0  0  0  0  0  0  0  0
    0.6401    0.2715    0.0000 C   0  0  0  0  0  0  0  0  0
   -0.0884    0.6588    0.0000 Cl  0  0  0  0  0  0  0  0  0
    2.8254   -0.8904    0.0000 C   0  0  0  0  0  0  0  0  0
    2.3175   -1.5405    0.0000 O   0  0  0  0  0  0  0  0  0
    3.0803   -0.1058    0.0000 C   0  0  0  0  0  0  0  0  0
    3.8873    0.0657    0.0000 C   0  0  0  0  0  0  0  0  0
    4.4393   -0.5474    0.0000 N   0  0  0  0  0  0  0  0  0
    4.1844   -1.3320    0.0000 C   0  0  0  0  0  0  0  0  0
    3.3774   -1.5035    0.0000 C   0  0  0  0  0  0  0  0  0
    5.2463   -0.3759    0.0000 C   0  0  0  0  0  0  0  0  0
    5.5012    0.4088    0.0000 C   0  0  0  0  0  0  0  0  0
    6.2859    0.6637    0.0000 C   0  0  0  0  0  0  0  0  0
    6.2859    1.4887    0.0000 C   0  0  0  0  0  0  0  0  0
    5.5012    1.7436    0.0000 O   0  0  0  0  0  0  0  0  0
    5.0163    1.0762    0.0000 C   0  0  0  0  0  0  0  0  0
    7.0003    1.9012    0.0000 C   0  0  0  0  0  0  0  0  0
    7.7148    1.4887    0.0000 C   0  0  0  0  0  0  0  0  0
    7.7148    0.6637    0.0000 C   0  0  0  0  0  0  0  0  0
    7.0003    0.2512    0.0000 C   0  0  0  0  0  0  0  0  0
  1  2  1  0  0  0  0
  2  3  4  0  0  0  0
  2  7  4  0  0  0  0
  3  4  4  0  0  0  0
  4  5  4  0  0  0  0
  4  9  1  0  0  0  0
  5  6  4  0  0  0  0
  6  7  4  0  0  0  0
  7  8  1  0  0  0  0
  9 10  1  0  0  0  0
  9 11  1  0  0  0  0
  9 15  1  0  0  0  0
 11 12  1  0  0  0  0
 12 13  1  0  0  0  0
 13 14  1  0  0  0  0
 13 16  1  0  0  0  0
 14 15  1  0  0  0  0
 16 17  1  0  0  0  0
 17 18  4  0  0  0  0
 17 21  4  0  0  0  0
 18 19  4  0  0  0  0
 18 25  4  0  0  0  0
 19 20  4  0  0  0  0
 19 22  4  0  0  0  0
 20 21  4  0  0  0  0
 22 23  4  0  0  0  0
 23 24  4  0  0  0  0
 24 25  4  0  0  0  0
M  END
>  <Name_Molregno>
407857

>  <DOPAMINE D2>
7.68

>  <DOPAMINE D3>
7.55

>  <DOPAMINE D4>
6.78

$$$$
407858
  Marvin  02231216192D 0   1.00000     0.00000     0

 24 27  0  0  0  0  0  0  0  0999 V2000
    0.3176    0.0313    0.0000 Cl  0  0  0  0  0  0  0  0  0
    1.0460   -0.3560    0.0000 C   0  0  0  0  0  0  0  0  0
    1.7457    0.0812    0.0000 C   0  0  0  0  0  0  0  0  0
    2.4741   -0.3061    0.0000 C   0  0  0  0  0  0  0  0  0
    2.5029   -1.1306    0.0000 C   0  0  0  0  0  0  0  0  0
    1.8032   -1.5678    0.0000 C   0  0  0  0  0  0  0  0  0
    1.0748   -1.1805    0.0000 C   0  0  0  0  0  0  0  0  0
    3.2313   -1.5179    0.0000 C   0  0  0  0  0  0  0  0  0
    2.7234   -2.1680    0.0000 O   0  0  0  0  0  0  0  0  0
    3.4863   -0.7333    0.0000 C   0  0  0  0  0  0  0  0  0
    4.2932   -0.5618    0.0000 C   0  0  0  0  0  0  0  0  0
    4.8453   -1.1749    0.0000 N   0  0  0  0  0  0  0  0  0
    4.5903   -1.9595    0.0000 C   0  0  0  0  0  0  0  0  0
    3.7833   -2.1310    0.0000 C   0  0  0  0  0  0  0  0  0
    5.6522   -1.0033    0.0000 C   0  0  0  0  0  0  0  0  0
    5.9072   -0.2187    0.0000 C   0  0  0  0  0  0  0  0  0
    6.6918    0.0362    0.0000 C   0  0  0  0  0  0  0  0  0
    6.6918    0.8612    0.0000 C   0  0  0  0  0  0  0  0  0
    5.9072    1.1162    0.0000 O   0  0  0  0  0  0  0  0  0
    5.4222    0.4487    0.0000 C   0  0  0  0  0  0  0  0  0
    7.4063    1.2737    0.0000 C   0  0  0  0  0  0  0  0  0
    8.1207    0.8612    0.0000 C   0  0  0  0  0  0  0  0  0
    8.1207    0.0362    0.0000 C   0  0  0  0  0  0  0  0  0
    7.4063   -0.3763    0.0000 C   0  0  0  0  0  0  0  0  0
  1  2  1  0  0  0  0
  2  3  4  0  0  0  0
  2  7  4  0  0  0  0
  3  4  4  0  0  0  0
  4  5  4  0  0  0  0
  5  6  4  0  0  0  0
  5  8  1  0  0  0  0
  6  7  4  0  0  0  0
  8  9  1  0  0  0  0
  8 10  1  0  0  0  0
  8 14  1  0  0  0  0
 10 11  1  0  0  0  0
 11 12  1  0  0  0  0
 12 13  1  0  0  0  0
 12 15  1  0  0  0  0
 13 14  1  0  0  0  0
 15 16  1  0  0  0  0
 16 17  4  0  0  0  0
 16 20  4  0  0  0  0
 17 18  4  0  0  0  0
 17 24  4  0  0  0  0
 18 19  4  0  0  0  0
 18 21  4  0  0  0  0
 19 20  4  0  0  0  0
 21 22  4  0  0  0  0
 22 23  4  0  0  0  0
 23 24  4  0  0  0  0
M  END
>  <Name_Molregno>
407858

>  <DOPAMINE D2>
7.68

>  <DOPAMINE D3>
7.28

>  <DOPAMINE D4>
6.39

$$$$
407859
  Marvin  02231216192D 0   1.00000     0.00000     0

 25 28  0  0  0  0  0  0  0  0999 V2000
   -8.0736    0.9213    0.0000 S   0  0  0  0  0  0  0  0  0
   -8.7732    0.4841    0.0000 C   0  0  0  0  0  0  0  0  0
   -7.3452    0.5340    0.0000 C   0  0  0  0  0  0  0  0  0
   -6.6455    0.9712    0.0000 C   0  0  0  0  0  0  0  0  0
   -5.9171    0.5838    0.0000 C   0  0  0  0  0  0  0  0  0
   -5.8883   -0.2407    0.0000 C   0  0  0  0  0  0  0  0  0
   -6.5879   -0.6778    0.0000 C   0  0  0  0  0  0  0  0  0
   -7.3164   -0.2905    0.0000 C   0  0  0  0  0  0  0  0  0
   -5.1599   -0.6280    0.0000 C   0  0  0  0  0  0  0  0  0
   -5.6678   -1.2781    0.0000 O   0  0  0  0  0  0  0  0  0
   -4.9049    0.1566    0.0000 C   0  0  0  0  0  0  0  0  0
   -4.0980    0.3282    0.0000 C   0  0  0  0  0  0  0  0  0
   -3.5459   -0.2849    0.0000 N   0  0  0  0  0  0  0  0  0
   -3.8009   -1.0695    0.0000 C   0  0  0  0  0  0  0  0  0
   -4.6078   -1.2411    0.0000 C   0  0  0  0  0  0  0  0  0
   -2.7390   -0.1134    0.0000 C   0  0  0  0  0  0  0  0  0
   -2.4840    0.6712    0.0000 C   0  0  0  0  0  0  0  0  0
   -1.6994    0.9262    0.0000 C   0  0  0  0  0  0  0  0  0
   -1.6994    1.7512    0.0000 C   0  0  0  0  0  0  0  0  0
   -2.4840    2.0061    0.0000 O   0  0  0  0  0  0  0  0  0
   -2.9689    1.3387    0.0000 C   0  0  0  0  0  0  0  0  0
   -0.9849    2.1637    0.0000 C   0  0  0  0  0  0  0  0  0
   -0.2705    1.7512    0.0000 C   0  0  0  0  0  0  0  0  0
   -0.2705    0.9262    0.0000 C   0  0  0  0  0  0  0  0  0
   -0.9849    0.5137    0.0000 C   0  0  0  0  0  0  0  0  0
  1  2  1  0  0  0  0
  1  3  1  0  0  0  0
  3  4  4  0  0  0  0
  3  8  4  0  0  0  0
  4  5  4  0  0  0  0
  5  6  4  0  0  0  0
  6  7  4  0  0  0  0
  6  9  1  0  0  0  0
  7  8  4  0  0  0  0
  9 10  1  0  0  0  0
  9 11  1  0  0  0  0
  9 15  1  0  0  0  0
 11 12  1  0  0  0  0
 12 13  1  0  0  0  0
 13 14  1  0  0  0  0
 13 16  1  0  0  0  0
 14 15  1  0  0  0  0
 16 17  1  0  0  0  0
 17 18  4  0  0  0  0
 17 21  4  0  0  0  0
 18 19  4  0  0  0  0
 18 25  4  0  0  0  0
 19 20  4  0  0  0  0
 19 22  4  0  0  0  0
 20 21  4  0  0  0  0
 22 23  4  0  0  0  0
 23 24  4  0  0  0  0
 24 25  4  0  0  0  0
M  END
>  <Name_Molregno>
407859

>  <DOPAMINE D2>
7.27

>  <DOPAMINE D3>
6.86

>  <DOPAMINE D4>
6.82

$$$$
407860
  Marvin  02231216192D 0   1.00000     0.00000     0

 25 28  0  0  0  0  0  0  0  0999 V2000
    0.3810    0.0082    0.0000 Cl  0  0  0  0  0  0  0  0  0
    1.1094   -0.3791    0.0000 C   0  0  0  0  0  0  0  0  0
    1.8091    0.0580    0.0000 C   0  0  0  0  0  0  0  0  0
    2.5375   -0.3293    0.0000 C   0  0  0  0  0  0  0  0  0
    2.5663   -1.1538    0.0000 C   0  0  0  0  0  0  0  0  0
    1.8667   -1.5909    0.0000 C   0  0  0  0  0  0  0  0  0
    1.1382   -1.2036    0.0000 C   0  0  0  0  0  0  0  0  0
    3.2947   -1.5411    0.0000 C   0  0  0  0  0  0  0  0  0
    2.7868   -2.1912    0.0000 O   0  0  0  0  0  0  0  0  0
    3.5497   -0.7565    0.0000 C   0  0  0  0  0  0  0  0  0
    4.3567   -0.5849    0.0000 C   0  0  0  0  0  0  0  0  0
    4.9087   -1.1980    0.0000 N   0  0  0  0  0  0  0  0  0
    4.6537   -1.9826    0.0000 C   0  0  0  0  0  0  0  0  0
    3.8468   -2.1542    0.0000 C   0  0  0  0  0  0  0  0  0
    5.7157   -1.0265    0.0000 C   0  0  0  0  0  0  0  0  0
    5.9706   -0.2419    0.0000 C   0  0  0  0  0  0  0  0  0
    6.7552    0.0131    0.0000 C   0  0  0  0  0  0  0  0  0
    6.7552    0.8381    0.0000 C   0  0  0  0  0  0  0  0  0
    5.9706    1.0930    0.0000 N   0  0  0  0  0  0  0  0  0
    5.4857    0.4256    0.0000 C   0  0  0  0  0  0  0  0  0
    5.7157    1.8776    0.0000 C   0  0  0  0  0  0  0  0  0
    7.4697    1.2506    0.0000 C   0  0  0  0  0  0  0  0  0
    8.1842    0.8381    0.0000 C   0  0  0  0  0  0  0  0  0
    8.1842    0.0131    0.0000 C   0  0  0  0  0  0  0  0  0
    7.4697   -0.3994    0.0000 C   0  0  0  0  0  0  0  0  0
  1  2  1  0  0  0  0
  2  3  4  0  0  0  0
  2  7  4  0  0  0  0
  3  4  4  0  0  0  0
  4  5  4  0  0  0  0
  5  6  4  0  0  0  0
  5  8  1  0  0  0  0
  6  7  4  0  0  0  0
  8  9  1  0  0  0  0
  8 10  1  0  0  0  0
  8 14  1  0  0  0  0
 10 11  1  0  0  0  0
 11 12  1  0  0  0  0
 12 13  1  0  0  0  0
 12 15  1  0  0  0  0
 13 14  1  0  0  0  0
 15 16  1  0  0  0  0
 16 17  4  0  0  0  0
 16 20  4  0  0  0  0
 17 18  4  0  0  0  0
 17 25  4  0  0  0  0
 18 19  4  0  0  0  0
 18 22  4  0  0  0  0
 19 20  4  0  0  0  0
 19 21  1  0  0  0  0
 22 23  4  0  0  0  0
 23 24  4  0  0  0  0
 24 25  4  0  0  0  0
M  END
>  <Name_Molregno>
407860

>  <DOPAMINE D2>
7.53

>  <DOPAMINE D3>
6.62

>  <DOPAMINE D4>
5.29

$$$$
407861
  Marvin  02231216192D 0   1.00000     0.00000     0

 30 33  0  0  0  0  0  0  0  0999 V2000
    1.0428    3.1891    0.0000 Cl  0  0  0  0  0  0  0  0  0
    1.6159    2.5956    0.0000 C   0  0  0  0  0  0  0  0  0
    2.4163    2.7952    0.0000 C   0  0  0  0  0  0  0  0  0
    2.9894    2.2018    0.0000 C   0  0  0  0  0  0  0  0  0
    2.7620    1.4087    0.0000 C   0  0  0  0  0  0  0  0  0
    1.9615    1.2091    0.0000 C   0  0  0  0  0  0  0  0  0
    1.3885    1.8026    0.0000 C   0  0  0  0  0  0  0  0  0
    3.3351    0.8153    0.0000 C   0  0  0  0  0  0  0  0  0
    2.6512    0.3539    0.0000 O   0  0  0  0  0  0  0  0  0
    3.8201    1.4827    0.0000 C   0  0  0  0  0  0  0  0  0
    4.6405    1.3965    0.0000 C   0  0  0  0  0  0  0  0  0
    4.9761    0.6428    0.0000 N   0  0  0  0  0  0  0  0  0
    4.4912   -0.0247    0.0000 C   0  0  0  0  0  0  0  0  0
    3.6707    0.0616    0.0000 C   0  0  0  0  0  0  0  0  0
    5.7966    0.5565    0.0000 C   0  0  0  0  0  0  0  0  0
    6.1321   -0.1971    0.0000 C   0  0  0  0  0  0  0  0  0
    5.7196   -0.9116    0.0000 C   0  0  0  0  0  0  0  0  0
    6.2717   -1.5247    0.0000 C   0  0  0  0  0  0  0  0  0
    7.0253   -1.1891    0.0000 N   0  0  0  0  0  0  0  0  0
    6.9391   -0.3687    0.0000 C   0  0  0  0  0  0  0  0  0
    7.7398   -1.6016    0.0000 C   0  0  0  0  0  0  0  0  0
    8.4543   -1.1891    0.0000 C   0  0  0  0  0  0  0  0  0
    9.1688   -1.6016    0.0000 C   0  0  0  0  0  0  0  0  0
    9.8832   -1.1891    0.0000 C   0  0  0  0  0  0  0  0  0
   10.5977   -1.6016    0.0000 C   0  0  0  0  0  0  0  0  0
   11.3122   -1.1891    0.0000 C   0  0  0  0  0  0  0  0  0
    6.0167   -2.3093    0.0000 C   0  0  0  0  0  0  0  0  0
    5.2098   -2.4808    0.0000 C   0  0  0  0  0  0  0  0  0
    4.6577   -1.8677    0.0000 C   0  0  0  0  0  0  0  0  0
    4.9127   -1.0831    0.0000 C   0  0  0  0  0  0  0  0  0
  1  2  1  0  0  0  0
  2  3  4  0  0  0  0
  2  7  4  0  0  0  0
  3  4  4  0  0  0  0
  4  5  4  0  0  0  0
  5  6  4  0  0  0  0
  5  8  1  0  0  0  0
  6  7  4  0  0  0  0
  8  9  1  0  0  0  0
  8 10  1  0  0  0  0
  8 14  1  0  0  0  0
 10 11  1  0  0  0  0
 11 12  1  0  0  0  0
 12 13  1  0  0  0  0
 12 15  1  0  0  0  0
 13 14  1  0  0  0  0
 15 16  1  0  0  0  0
 16 17  4  0  0  0  0
 16 20  4  0  0  0  0
 17 18  4  0  0  0  0
 17 30  4  0  0  0  0
 18 19  4  0  0  0  0
 18 27  4  0  0  0  0
 19 20  4  0  0  0  0
 19 21  1  0  0  0  0
 21 22  1  0  0  0  0
 22 23  1  0  0  0  0
 23 24  1  0  0  0  0
 24 25  1  0  0  0  0
 25 26  1  0  0  0  0
 27 28  4  0  0  0  0
 28 29  4  0  0  0  0
 29 30  4  0  0  0  0
M  END
>  <Name_Molregno>
407861

>  <DOPAMINE D2>
6.73

>  <DOPAMINE D3>
6.31

>  <DOPAMINE D4>
5.05

$$$$
407862
  Marvin  02231216192D 0   1.00000     0.00000     0

 24 27  0  0  0  0  0  0  0  0999 V2000
    0.3635   -1.7916    0.0000 Cl  0  0  0  0  0  0  0  0  0
    1.1387   -1.5095    0.0000 C   0  0  0  0  0  0  0  0  0
    1.2820   -0.6970    0.0000 C   0  0  0  0  0  0  0  0  0
    2.0572   -0.4148    0.0000 C   0  0  0  0  0  0  0  0  0
    2.6892   -0.9451    0.0000 C   0  0  0  0  0  0  0  0  0
    2.5459   -1.7576    0.0000 C   0  0  0  0  0  0  0  0  0
    1.7707   -2.0398    0.0000 C   0  0  0  0  0  0  0  0  0
    3.4644   -0.6630    0.0000 C   0  0  0  0  0  0  0  0  0
    3.6077   -1.4754    0.0000 O   0  0  0  0  0  0  0  0  0
    3.0519    0.0515    0.0000 C   0  0  0  0  0  0  0  0  0
    3.4644    0.7660    0.0000 C   0  0  0  0  0  0  0  0  0
    4.2894    0.7660    0.0000 N   0  0  0  0  0  0  0  0  0
    4.7019    0.0515    0.0000 C   0  0  0  0  0  0  0  0  0
    4.2894   -0.6630    0.0000 C   0  0  0  0  0  0  0  0  0
    4.7019    1.4804    0.0000 C   0  0  0  0  0  0  0  0  0
    5.5269    1.4804    0.0000 C   0  0  0  0  0  0  0  0  0
    6.0119    0.8130    0.0000 N   0  0  0  0  0  0  0  0  0
    6.7965    1.0679    0.0000 C   0  0  0  0  0  0  0  0  0
    6.7965    1.8929    0.0000 C   0  0  0  0  0  0  0  0  0
    6.0119    2.1479    0.0000 C   0  0  0  0  0  0  0  0  0
    7.5110    2.3054    0.0000 C   0  0  0  0  0  0  0  0  0
    8.2254    1.8929    0.0000 C   0  0  0  0  0  0  0  0  0
    8.2254    1.0679    0.0000 C   0  0  0  0  0  0  0  0  0
    7.5110    0.6554    0.0000 C   0  0  0  0  0  0  0  0  0
  1  2  1  0  0  0  0
  2  3  4  0  0  0  0
  2  7  4  0  0  0  0
  3  4  4  0  0  0  0
  4  5  4  0  0  0  0
  5  6  4  0  0  0  0
  5  8  1  0  0  0  0
  6  7  4  0  0  0  0
  8  9  1  0  0  0  0
  8 10  1  0  0  0  0
  8 14  1  0  0  0  0
 10 11  1  0  0  0  0
 11 12  1  0  0  0  0
 12 13  1  0  0  0  0
 12 15  1  0  0  0  0
 13 14  1  0  0  0  0
 15 16  1  0  0  0  0
 16 17  4  0  0  0  0
 16 20  4  0  0  0  0
 17 18  4  0  0  0  0
 18 19  4  0  0  0  0
 18 24  4  0  0  0  0
 19 20  4  0  0  0  0
 19 21  4  0  0  0  0
 21 22  4  0  0  0  0
 22 23  4  0  0  0  0
 23 24  4  0  0  0  0
M  STY  1   1 DAT
M  SAL   1  1  17
M  SDT   1 MRV_IMPLICIT_H                                        
M  SDD   1     0.0000    0.0000    DR    ALL  0       0  
M  SED   1 IMPL_H1
M  END
>  <Name_Molregno>
407862

>  <DOPAMINE D2>
5

>  <DOPAMINE D4>
4.7

$$$$
407863
  Marvin  02231216192D 0   1.00000     0.00000     0

 25 28  0  0  0  0  0  0  0  0999 V2000
   -8.0736    0.9213    0.0000 S   0  0  0  0  0  0  0  0  0
   -8.7732    0.4841    0.0000 C   0  0  0  0  0  0  0  0  0
   -7.3452    0.5340    0.0000 C   0  0  0  0  0  0  0  0  0
   -6.6455    0.9712    0.0000 C   0  0  0  0  0  0  0  0  0
   -5.9171    0.5838    0.0000 C   0  0  0  0  0  0  0  0  0
   -5.8883   -0.2407    0.0000 C   0  0  0  0  0  0  0  0  0
   -6.5879   -0.6778    0.0000 C   0  0  0  0  0  0  0  0  0
   -7.3164   -0.2905    0.0000 C   0  0  0  0  0  0  0  0  0
   -5.1599   -0.6280    0.0000 C   0  0  0  0  0  0  0  0  0
   -5.6678   -1.2781    0.0000 O   0  0  0  0  0  0  0  0  0
   -4.9049    0.1566    0.0000 C   0  0  0  0  0  0  0  0  0
   -4.0980    0.3282    0.0000 C   0  0  0  0  0  0  0  0  0
   -3.5459   -0.2849    0.0000 N   0  0  0  0  0  0  0  0  0
   -3.8009   -1.0695    0.0000 C   0  0  0  0  0  0  0  0  0
   -4.6078   -1.2411    0.0000 C   0  0  0  0  0  0  0  0  0
   -2.7390   -0.1134    0.0000 C   0  0  0  0  0  0  0  0  0
   -2.4840    0.6712    0.0000 C   0  0  0  0  0  0  0  0  0
   -1.6994    0.9262    0.0000 C   0  0  0  0  0  0  0  0  0
   -1.6994    1.7512    0.0000 C   0  0  0  0  0  0  0  0  0
   -2.4840    2.0061    0.0000 N   0  0  0  0  0  0  0  0  0
   -2.9689    1.3387    0.0000 C   0  0  0  0  0  0  0  0  0
   -0.9849    2.1637    0.0000 C   0  0  0  0  0  0  0  0  0
   -0.2705    1.7512    0.0000 C   0  0  0  0  0  0  0  0  0
   -0.2705    0.9262    0.0000 C   0  0  0  0  0  0  0  0  0
   -0.9849    0.5137    0.0000 C   0  0  0  0  0  0  0  0  0
  1  2  1  0  0  0  0
  1  3  1  0  0  0  0
  3  4  4  0  0  0  0
  3  8  4  0  0  0  0
  4  5  4  0  0  0  0
  5  6  4  0  0  0  0
  6  7  4  0  0  0  0
  6  9  1  0  0  0  0
  7  8  4  0  0  0  0
  9 10  1  0  0  0  0
  9 11  1  0  0  0  0
  9 15  1  0  0  0  0
 11 12  1  0  0  0  0
 12 13  1  0  0  0  0
 13 14  1  0  0  0  0
 13 16  1  0  0  0  0
 14 15  1  0  0  0  0
 16 17  1  0  0  0  0
 17 18  4  0  0  0  0
 17 21  4  0  0  0  0
 18 19  4  0  0  0  0
 18 25  4  0  0  0  0
 19 20  4  0  0  0  0
 19 22  4  0  0  0  0
 20 21  4  0  0  0  0
 22 23  4  0  0  0  0
 23 24  4  0  0  0  0
 24 25  4  0  0  0  0
M  STY  1   1 DAT
M  SAL   1  1  20
M  SDT   1 MRV_IMPLICIT_H                                        
M  SDD   1     0.0000    0.0000    DR    ALL  0       0  
M  SED   1 IMPL_H1
M  END
>  <Name_Molregno>
407863

>  <DOPAMINE D2>
7.62

>  <DOPAMINE D3>
6.2

>  <DOPAMINE D4>
6.5

$$$$
407864
  Marvin  02231216192D 0   1.00000     0.00000     0

 27 30  0  0  0  0  0  0  0  0999 V2000
   -7.9981    3.5016    0.0000 S   0  0  0  0  0  0  0  0  0
   -8.8150    3.3868    0.0000 C   0  0  0  0  0  0  0  0  0
   -7.4902    2.8515    0.0000 C   0  0  0  0  0  0  0  0  0
   -6.6732    2.9663    0.0000 C   0  0  0  0  0  0  0  0  0
   -6.1653    2.3162    0.0000 C   0  0  0  0  0  0  0  0  0
   -6.4743    1.5513    0.0000 C   0  0  0  0  0  0  0  0  0
   -7.2913    1.4364    0.0000 C   0  0  0  0  0  0  0  0  0
   -7.7992    2.0865    0.0000 C   0  0  0  0  0  0  0  0  0
   -5.9664    0.9011    0.0000 C   0  0  0  0  0  0  0  0  0
   -6.6948    0.5138    0.0000 O   0  0  0  0  0  0  0  0  0
   -5.4144    1.5142    0.0000 C   0  0  0  0  0  0  0  0  0
   -4.6074    1.3427    0.0000 C   0  0  0  0  0  0  0  0  0
   -4.3524    0.5581    0.0000 N   0  0  0  0  0  0  0  0  0
   -4.9045   -0.0550    0.0000 C   0  0  0  0  0  0  0  0  0
   -5.7115    0.1165    0.0000 C   0  0  0  0  0  0  0  0  0
   -3.5455    0.3866    0.0000 C   0  0  0  0  0  0  0  0  0
   -3.2905   -0.3981    0.0000 C   0  0  0  0  0  0  0  0  0
   -2.5059   -0.6530    0.0000 C   0  0  0  0  0  0  0  0  0
   -1.7914   -0.2405    0.0000 C   0  0  0  0  0  0  0  0  0
   -1.0770   -0.6530    0.0000 C   0  0  0  0  0  0  0  0  0
   -0.3625   -0.2405    0.0000 O   0  0  0  0  0  0  0  0  0
   -0.3625    0.5845    0.0000 C   0  0  0  0  0  0  0  0  0
   -1.0770   -1.4780    0.0000 C   0  0  0  0  0  0  0  0  0
   -1.7914   -1.8905    0.0000 C   0  0  0  0  0  0  0  0  0
   -2.5059   -1.4780    0.0000 C   0  0  0  0  0  0  0  0  0
   -3.2905   -1.7329    0.0000 N   0  0  0  0  0  0  0  0  0
   -3.7755   -1.0655    0.0000 C   0  0  0  0  0  0  0  0  0
  1  2  1  0  0  0  0
  1  3  1  0  0  0  0
  3  4  4  0  0  0  0
  3  8  4  0  0  0  0
  4  5  4  0  0  0  0
  5  6  4  0  0  0  0
  6  7  4  0  0  0  0
  6  9  1  0  0  0  0
  7  8  4  0  0  0  0
  9 10  1  0  0  0  0
  9 11  1  0  0  0  0
  9 15  1  0  0  0  0
 11 12  1  0  0  0  0
 12 13  1  0  0  0  0
 13 14  1  0  0  0  0
 13 16  1  0  0  0  0
 14 15  1  0  0  0  0
 16 17  1  0  0  0  0
 17 18  4  0  0  0  0
 17 27  4  0  0  0  0
 18 19  4  0  0  0  0
 18 25  4  0  0  0  0
 19 20  4  0  0  0  0
 20 21  1  0  0  0  0
 20 23  4  0  0  0  0
 21 22  1  0  0  0  0
 23 24  4  0  0  0  0
 24 25  4  0  0  0  0
 25 26  4  0  0  0  0
 26 27  4  0  0  0  0
M  STY  1   1 DAT
M  SAL   1  1  26
M  SDT   1 MRV_IMPLICIT_H                                        
M  SDD   1     0.0000    0.0000    DR    ALL  0       0  
M  SED   1 IMPL_H1
M  END
>  <Name_Molregno>
407864

>  <DOPAMINE D2>
8.26

>  <DOPAMINE D3>
6.24

>  <DOPAMINE D4>
6.25

$$$$
421822
  Marvin  02231216192D 0   1.00000     0.00000     0

 21 23  0  0  1  0  0  0  0  0999 V2000
   -3.0222   -2.3693    0.0000 Cl  0  0  0  0  0  0  0  0  0
   -3.0222   -1.5443    0.0000 C   0  0  0  0  0  0  0  0  0
   -2.3077   -1.1318    0.0000 C   0  0  0  0  0  0  0  0  0
   -2.3077   -0.3068    0.0000 C   0  0  0  0  0  0  0  0  0
   -1.5933    0.1057    0.0000 N   0  0  0  0  0  0  0  0  0
   -0.8788   -0.3068    0.0000 C   0  0  0  0  0  0  0  0  0
   -0.1643    0.1057    0.0000 O   0  0  0  0  0  0  0  0  0
   -0.8788   -1.1318    0.0000 C   0  0  0  0  0  0  0  0  0
   -0.0663   -0.9885    0.0000 C   0  0  0  0  0  0  0  0  0
   -1.5933   -1.5443    0.0000 C   0  0  0  0  0  0  0  0  0
   -1.5933   -2.3693    0.0000 O   0  0  0  0  0  0  0  0  0
   -0.5966   -1.9070    0.0000 C   0  0  0  0  0  0  0  0  0
    0.2158   -2.0503    0.0000 C   0  0  0  0  0  0  0  0  0
    0.4980   -2.8255    0.0000 C   0  0  0  0  0  0  0  0  0
   -0.0323   -3.4575    0.0000 C   0  0  0  0  0  0  0  0  0
   -0.8448   -3.3143    0.0000 C   0  0  0  0  0  0  0  0  0
   -1.1269   -2.5390    0.0000 C   0  0  0  0  0  0  0  0  0
   -3.0222    0.1057    0.0000 C   0  0  0  0  0  0  0  0  0
   -3.7367   -0.3068    0.0000 C   0  0  0  0  0  0  0  0  0
   -4.4512    0.1057    0.0000 Cl  0  0  0  0  0  0  0  0  0
   -3.7367   -1.1318    0.0000 C   0  0  0  0  0  0  0  0  0
  1  2  1  0  0  0  0
  2  3  4  0  0  0  0
  2 21  4  0  0  0  0
  3  4  4  0  0  0  0
  3 10  1  0  0  0  0
  4  5  1  0  0  0  0
  4 18  4  0  0  0  0
  5  6  1  0  0  0  0
  6  7  2  0  0  0  0
  6  8  1  0  0  0  0
  8  9  1  0  0  0  0
  8 10  1  0  0  0  0
  8 12  1  0  0  0  0
 10 11  2  0  0  0  0
 12 13  4  0  0  0  0
 12 17  4  0  0  0  0
 13 14  4  0  0  0  0
 14 15  4  0  0  0  0
 15 16  4  0  0  0  0
 16 17  4  0  0  0  0
 18 19  4  0  0  0  0
 19 20  1  0  0  0  0
 19 21  4  0  0  0  0
M  END
>  <Name_Molregno>
421822

>  <5-HT1A>
5

>  <5-HT2A>
5

>  <5-HT2C>
5

>  <5-HT6>
7.26

>  <5-HT7>
5

>  <DOPAMINE D1>
5

>  <DOPAMINE D2>
5

>  <DOPAMINE D3>
5

>  <DOPAMINE D4>
5

$$$$
422032
  Marvin  02231216192D 0   1.00000     0.00000     0

 22 24  0  0  1  0  0  0  0  0999 V2000
    0.2420   -2.2208    0.0000 Cl  0  0  0  0  0  0  0  0  0
    0.2420   -1.3958    0.0000 C   0  0  0  0  0  0  0  0  0
    0.9565   -0.9833    0.0000 C   0  0  0  0  0  0  0  0  0
    0.9565   -0.1583    0.0000 C   0  0  0  0  0  0  0  0  0
    1.6709    0.2542    0.0000 N   0  0  0  0  0  0  0  0  0
    2.3854   -0.1583    0.0000 C   0  0  0  0  0  0  0  0  0
    3.0999    0.2542    0.0000 O   0  0  0  0  0  0  0  0  0
    2.3854   -0.9833    0.0000 C   0  0  0  0  0  0  0  0  0
    3.1979   -0.8401    0.0000 C   0  0  0  0  0  0  0  0  0
    1.6709   -1.3958    0.0000 C   0  0  0  0  0  0  0  0  0
    1.6709   -2.2208    0.0000 O   0  0  0  0  0  0  0  0  0
    2.6676   -1.7586    0.0000 C   0  0  0  0  0  0  0  0  0
    3.4800   -1.9018    0.0000 C   0  0  0  0  0  0  0  0  0
    3.7622   -2.6771    0.0000 C   0  0  0  0  0  0  0  0  0
    4.5747   -2.8203    0.0000 O   0  0  0  0  0  0  0  0  0
    3.2319   -3.3091    0.0000 C   0  0  0  0  0  0  0  0  0
    2.4194   -3.1658    0.0000 C   0  0  0  0  0  0  0  0  0
    2.1373   -2.3906    0.0000 C   0  0  0  0  0  0  0  0  0
    0.2420    0.2542    0.0000 C   0  0  0  0  0  0  0  0  0
   -0.4725   -0.1583    0.0000 C   0  0  0  0  0  0  0  0  0
   -1.1870    0.2542    0.0000 Cl  0  0  0  0  0  0  0  0  0
   -0.4725   -0.9833    0.0000 C   0  0  0  0  0  0  0  0  0
  1  2  1  0  0  0  0
  2  3  4  0  0  0  0
  2 22  4  0  0  0  0
  3  4  4  0  0  0  0
  3 10  1  0  0  0  0
  4  5  1  0  0  0  0
  4 19  4  0  0  0  0
  5  6  1  0  0  0  0
  6  7  2  0  0  0  0
  6  8  1  0  0  0  0
  8  9  1  0  0  0  0
  8 10  1  0  0  0  0
  8 12  1  0  0  0  0
 10 11  2  0  0  0  0
 12 13  4  0  0  0  0
 12 18  4  0  0  0  0
 13 14  4  0  0  0  0
 14 15  1  0  0  0  0
 14 16  4  0  0  0  0
 16 17  4  0  0  0  0
 17 18  4  0  0  0  0
 19 20  4  0  0  0  0
 20 21  1  0  0  0  0
 20 22  4  0  0  0  0
M  END
>  <Name_Molregno>
422032

>  <5-HT1A>
5

>  <5-HT2A>
5

>  <5-HT2C>
5

>  <5-HT6>
7.52

>  <5-HT7>
5

>  <DOPAMINE D1>
5.74

>  <DOPAMINE D2>
5

>  <DOPAMINE D3>
5

>  <DOPAMINE D4>
5

$$$$
422034
  Marvin  02231216192D 0   1.00000     0.00000     0

 22 24  0  0  1  0  0  0  0  0999 V2000
   -3.2883   -2.2141    0.0000 Cl  0  0  0  0  0  0  0  0  0
   -3.2883   -1.3891    0.0000 C   0  0  0  0  0  0  0  0  0
   -2.5738   -0.9766    0.0000 C   0  0  0  0  0  0  0  0  0
   -2.5738   -0.1516    0.0000 C   0  0  0  0  0  0  0  0  0
   -1.8594    0.2609    0.0000 N   0  0  0  0  0  0  0  0  0
   -1.1449   -0.1516    0.0000 C   0  0  0  0  0  0  0  0  0
   -0.4304    0.2609    0.0000 O   0  0  0  0  0  0  0  0  0
   -1.1449   -0.9766    0.0000 C   0  0  0  0  0  0  0  0  0
   -0.3324   -0.8334    0.0000 C   0  0  0  0  0  0  0  0  0
   -1.8594   -1.3891    0.0000 C   0  0  0  0  0  0  0  0  0
   -1.8594   -2.2141    0.0000 O   0  0  0  0  0  0  0  0  0
   -0.8627   -1.7519    0.0000 C   0  0  0  0  0  0  0  0  0
   -0.0503   -1.8951    0.0000 C   0  0  0  0  0  0  0  0  0
    0.2319   -2.6704    0.0000 C   0  0  0  0  0  0  0  0  0
   -0.2984   -3.3024    0.0000 C   0  0  0  0  0  0  0  0  0
   -0.0162   -4.0776    0.0000 O   0  0  0  0  0  0  0  0  0
   -1.1109   -3.1591    0.0000 C   0  0  0  0  0  0  0  0  0
   -1.3930   -2.3839    0.0000 C   0  0  0  0  0  0  0  0  0
   -3.2883    0.2609    0.0000 C   0  0  0  0  0  0  0  0  0
   -4.0028   -0.1516    0.0000 C   0  0  0  0  0  0  0  0  0
   -4.7172    0.2609    0.0000 Cl  0  0  0  0  0  0  0  0  0
   -4.0028   -0.9766    0.0000 C   0  0  0  0  0  0  0  0  0
  1  2  1  0  0  0  0
  2  3  4  0  0  0  0
  2 22  4  0  0  0  0
  3  4  4  0  0  0  0
  3 10  1  0  0  0  0
  4  5  1  0  0  0  0
  4 19  4  0  0  0  0
  5  6  1  0  0  0  0
  6  7  2  0  0  0  0
  6  8  1  0  0  0  0
  8  9  1  0  0  0  0
  8 10  1  0  0  0  0
  8 12  1  0  0  0  0
 10 11  2  0  0  0  0
 12 13  4  0  0  0  0
 12 18  4  0  0  0  0
 13 14  4  0  0  0  0
 14 15  4  0  0  0  0
 15 16  1  0  0  0  0
 15 17  4  0  0  0  0
 17 18  4  0  0  0  0
 19 20  4  0  0  0  0
 20 21  1  0  0  0  0
 20 22  4  0  0  0  0
M  END
>  <Name_Molregno>
422034

>  <5-HT1A>
5

>  <5-HT2A>
5

>  <5-HT2C>
5

>  <5-HT6>
7.91

>  <5-HT7>
5

>  <DOPAMINE D1>
5

>  <DOPAMINE D2>
5

>  <DOPAMINE D3>
5

>  <DOPAMINE D4>
5

$$$$
422042
  Marvin  02231216192D 0   1.00000     0.00000     0

 29 32  0  0  1  0  0  0  0  0999 V2000
   -4.6946   -2.2677    0.0000 Cl  0  0  0  0  0  0  0  0  0
   -4.6946   -1.4427    0.0000 C   0  0  0  0  0  0  0  0  0
   -3.9801   -1.0302    0.0000 C   0  0  0  0  0  0  0  0  0
   -3.9801   -0.2052    0.0000 C   0  0  0  0  0  0  0  0  0
   -3.2656    0.2073    0.0000 N   0  0  0  0  0  0  0  0  0
   -2.5512   -0.2052    0.0000 C   0  0  0  0  0  0  0  0  0
   -1.8367    0.2073    0.0000 O   0  0  0  0  0  0  0  0  0
   -2.5512   -1.0302    0.0000 C   0  0  0  0  0  0  0  0  0
   -1.7387   -0.8870    0.0000 C   0  0  0  0  0  0  0  0  0
   -3.2656   -1.4427    0.0000 C   0  0  0  0  0  0  0  0  0
   -3.2656   -2.2677    0.0000 O   0  0  0  0  0  0  0  0  0
   -2.2690   -1.8055    0.0000 C   0  0  0  0  0  0  0  0  0
   -1.4565   -1.9487    0.0000 C   0  0  0  0  0  0  0  0  0
   -1.1744   -2.7240    0.0000 C   0  0  0  0  0  0  0  0  0
   -0.3619   -2.8672    0.0000 O   0  0  0  0  0  0  0  0  0
   -0.0797   -3.6425    0.0000 C   0  0  0  0  0  0  0  0  0
    0.7327   -3.7857    0.0000 C   0  0  0  0  0  0  0  0  0
    1.2630   -3.1538    0.0000 C   0  0  0  0  0  0  0  0  0
    2.0755   -3.2970    0.0000 C   0  0  0  0  0  0  0  0  0
    2.3577   -4.0723    0.0000 C   0  0  0  0  0  0  0  0  0
    1.8274   -4.7042    0.0000 C   0  0  0  0  0  0  0  0  0
    1.0149   -4.5610    0.0000 C   0  0  0  0  0  0  0  0  0
   -1.7047   -3.3560    0.0000 C   0  0  0  0  0  0  0  0  0
   -2.5171   -3.2127    0.0000 C   0  0  0  0  0  0  0  0  0
   -2.7993   -2.4375    0.0000 C   0  0  0  0  0  0  0  0  0
   -4.6946    0.2073    0.0000 C   0  0  0  0  0  0  0  0  0
   -5.4091   -0.2052    0.0000 C   0  0  0  0  0  0  0  0  0
   -6.1235    0.2073    0.0000 Cl  0  0  0  0  0  0  0  0  0
   -5.4091   -1.0302    0.0000 C   0  0  0  0  0  0  0  0  0
  1  2  1  0  0  0  0
  2  3  4  0  0  0  0
  2 29  4  0  0  0  0
  3  4  4  0  0  0  0
  3 10  1  0  0  0  0
  4  5  1  0  0  0  0
  4 26  4  0  0  0  0
  5  6  1  0  0  0  0
  6  7  2  0  0  0  0
  6  8  1  0  0  0  0
  8  9  1  0  0  0  0
  8 10  1  0  0  0  0
  8 12  1  0  0  0  0
 10 11  2  0  0  0  0
 12 13  4  0  0  0  0
 12 25  4  0  0  0  0
 13 14  4  0  0  0  0
 14 15  1  0  0  0  0
 14 23  4  0  0  0  0
 15 16  1  0  0  0  0
 16 17  1  0  0  0  0
 17 18  4  0  0  0  0
 17 22  4  0  0  0  0
 18 19  4  0  0  0  0
 19 20  4  0  0  0  0
 20 21  4  0  0  0  0
 21 22  4  0  0  0  0
 23 24  4  0  0  0  0
 24 25  4  0  0  0  0
 26 27  4  0  0  0  0
 27 28  1  0  0  0  0
 27 29  4  0  0  0  0
M  END
>  <Name_Molregno>
422042

>  <5-HT1A>
6.77

>  <5-HT2A>
6.14

>  <5-HT2C>
5

>  <5-HT6>
7.08

>  <5-HT7>
6.22

>  <DOPAMINE D1>
6.92

>  <DOPAMINE D2>
5

>  <DOPAMINE D3>
5

>  <DOPAMINE D4>
5

$$$$
437622
  Marvin  02231216192D 0   1.00000     0.00000     0

 29 31  0  0  1  0  0  0  0  0999 V2000
    4.6273    6.8992    0.0000 F   0  0  0  0  0  0  0  0  0
    4.6273    6.0742    0.0000 C   0  0  0  0  0  0  0  0  0
    5.3417    5.6617    0.0000 C   0  0  0  0  0  0  0  0  0
    5.3417    4.8367    0.0000 C   0  0  0  0  0  0  0  0  0
    4.6273    4.4242    0.0000 C   0  0  0  0  0  0  0  0  0
    3.9128    4.8367    0.0000 C   0  0  0  0  0  0  0  0  0
    3.9128    5.6617    0.0000 C   0  0  0  0  0  0  0  0  0
    4.6273    3.5992    0.0000 C   0  0  0  0  0  0  0  0  0
    5.3417    3.1867    0.0000 C   0  0  0  0  0  0  0  0  0
    5.3417    2.3617    0.0000 N   0  0  0  0  0  0  0  0  0
    6.0562    1.9492    0.0000 C   0  0  0  0  0  0  0  0  0
    6.0562    1.1242    0.0000 C   0  0  0  0  0  0  0  0  0
    5.3417    0.7117    0.0000 C   0  0  0  0  0  0  0  0  0
    4.6273    1.1242    0.0000 C   0  0  0  0  0  0  0  0  0
    4.6273    1.9492    0.0000 C   0  0  0  0  0  0  0  0  0
    5.3417   -0.1133    0.0000 C   0  0  0  0  0  0  0  0  0
    4.6273   -0.5258    0.0000 O   0  0  0  0  0  0  0  0  0
    6.0562   -0.5258    0.0000 C   0  0  0  0  0  0  0  0  0
    6.7707   -0.1133    0.0000 C   0  0  0  0  0  0  0  0  0
    7.4851   -0.5258    0.0000 C   0  0  0  0  0  0  0  0  0
    7.4851   -1.3508    0.0000 C   0  0  0  0  0  0  0  0  0
    6.7707   -1.7633    0.0000 C   0  0  0  0  0  0  0  0  0
    6.7707   -2.5883    0.0000 O   0  0  0  0  0  0  0  0  0
    7.4851   -3.0008    0.0000 C   0  0  0  0  0  0  0  0  0
    7.4851   -3.8258    0.0000 C   0  0  0  0  0  0  0  0  0
    8.1996   -4.2383    0.0000 F   0  0  0  0  0  0  0  0  0
    6.0562   -1.3508    0.0000 C   0  0  0  0  0  0  0  0  0
    5.3417   -1.7633    0.0000 O   0  0  0  0  0  0  0  0  0
    5.3417   -2.5883    0.0000 C   0  0  0  0  0  0  0  0  0
  1  2  1  0  0  0  0
  2  3  4  0  0  0  0
  2  7  4  0  0  0  0
  3  4  4  0  0  0  0
  4  5  4  0  0  0  0
  5  6  4  0  0  0  0
  5  8  1  0  0  0  0
  6  7  4  0  0  0  0
  8  9  1  0  0  0  0
  9 10  1  0  0  0  0
 10 11  1  0  0  0  0
 10 15  1  0  0  0  0
 11 12  1  0  0  0  0
 12 13  1  0  0  0  0
 13 14  1  0  0  0  0
 13 16  1  0  0  0  0
 14 15  1  0  0  0  0
 16 17  1  0  0  0  0
 16 18  1  0  0  0  0
 18 19  4  0  0  0  0
 18 27  4  0  0  0  0
 19 20  4  0  0  0  0
 20 21  4  0  0  0  0
 21 22  4  0  0  0  0
 22 23  1  0  0  0  0
 22 27  4  0  0  0  0
 23 24  1  0  0  0  0
 24 25  1  0  0  0  0
 25 26  1  0  0  0  0
 27 28  1  0  0  0  0
 28 29  1  0  0  0  0
M  END
>  <Name_Molregno>
437622

>  <5-HT1A>
5

>  <5-HT1B>
5.89

>  <5-HT1D>
6.06

>  <5-HT1E>
5

>  <5-HT2C>
7.22

>  <5-HT3>
5

>  <5-HT5>
5.09

>  <5-HT6>
5.41

>  <5-HT7>
7.09

>  <Alpha-1A>
6.47

>  <Alpha-1B>
6.4

>  <Alpha-2A>
5

>  <Alpha-2C>
6.83

>  <DOPAMINE D1>
5.74

>  <DOPAMINE D2>
5.29

>  <DOPAMINE D4>
6.31

>  <DOPAMINE D5>
5.13

>  <Dopamine transporter>
5

>  <HISTAMINE H1>
6.36

>  <HISTAMINE H2>
5.56

>  <HISTAMINE H3>
5

>  <Serotonin transporter>
5.55

$$$$
470391
  Marvin  02231216192D 0   1.00000     0.00000     0

 26 30  0  0  1  0  0  0  0  0999 V2000
    6.5550   -4.7566    0.0000 Cl  0  0  0  0  0  0  0  0  0
    6.0895   -4.0754    0.0000 C   0  0  0  0  0  0  0  0  0
    5.2669   -4.1380    0.0000 C   0  0  0  0  0  0  0  0  0
    4.8014   -3.4568    0.0000 C   0  0  0  0  0  0  0  0  0
    5.1586   -2.7131    0.0000 C   0  0  0  0  0  0  0  0  0
    5.9812   -2.6506    0.0000 C   0  0  0  0  0  0  0  0  0
    6.4467   -3.3318    0.0000 C   0  0  0  0  0  0  0  0  0
    4.6931   -2.0320    0.0000 C   0  0  0  0  0  0  0  0  0
    3.9081   -2.2857    0.0000 O   0  0  0  0  0  0  0  0  0
    5.2172   -1.3897    0.0000 C   0  0  0  0  0  0  0  0  0
    4.5940   -0.7009    0.0000 C   0  0  0  0  0  0  0  0  0
    4.5559    0.0106    0.0000 N   0  0  0  0  0  0  0  0  0
    4.0359   -0.6299    0.0000 C   0  0  0  0  0  0  0  0  0
    4.6758   -1.3612    0.0000 C   0  0  0  0  0  0  0  0  0
    3.1575   -0.7077    0.0000 C   0  0  0  0  0  0  0  0  0
    3.8496   -0.9264    0.0000 C   0  0  0  0  0  0  0  0  0
    4.8108    0.7952    0.0000 C   0  0  0  0  0  0  0  0  0
    4.2588    1.4083    0.0000 C   0  0  0  0  0  0  0  0  0
    4.4303    2.2153    0.0000 C   0  0  0  0  0  0  0  0  0
    3.7158    2.6278    0.0000 C   0  0  0  0  0  0  0  0  0
    3.1027    2.0758    0.0000 N   0  0  0  0  0  0  0  0  0
    3.4383    1.3221    0.0000 C   0  0  0  0  0  0  0  0  0
    3.7158    3.4528    0.0000 C   0  0  0  0  0  0  0  0  0
    4.4303    3.8653    0.0000 C   0  0  0  0  0  0  0  0  0
    5.1448    3.4528    0.0000 C   0  0  0  0  0  0  0  0  0
    5.1448    2.6278    0.0000 C   0  0  0  0  0  0  0  0  0
  1  2  1  0  0  0  0
  2  3  4  0  0  0  0
  2  7  4  0  0  0  0
  3  4  4  0  0  0  0
  4  5  4  0  0  0  0
  5  6  4  0  0  0  0
  5  8  1  0  0  0  0
  6  7  4  0  0  0  0
  8  9  1  0  0  0  0
  8 10  1  0  0  0  0
  8 14  1  0  0  0  0
 10 11  1  0  0  0  0
 11 12  1  0  0  0  0
 11 16  1  0  0  0  0
 12 13  1  0  0  0  0
 12 17  1  0  0  0  0
 13 14  1  0  0  0  0
 13 15  1  0  0  0  0
 15 16  1  0  0  0  0
 17 18  1  0  0  0  0
 18 19  4  0  0  0  0
 18 22  4  0  0  0  0
 19 20  4  0  0  0  0
 19 26  4  0  0  0  0
 20 21  4  0  0  0  0
 20 23  4  0  0  0  0
 21 22  4  0  0  0  0
 23 24  4  0  0  0  0
 24 25  4  0  0  0  0
 25 26  4  0  0  0  0
M  STY  1   1 DAT
M  SAL   1  1  21
M  SDT   1 MRV_IMPLICIT_H                                        
M  SDD   1     0.0000    0.0000    DR    ALL  0       0  
M  SED   1 IMPL_H1
M  END
>  <Name_Molregno>
470391

>  <DOPAMINE D2>
7.03

>  <DOPAMINE D3>
7.67

>  <DOPAMINE D4>
5.52

$$$$
489871
  Marvin  02231216192D 0   1.00000     0.00000     0

 26 29  0  0  1  0  0  0  0  0999 V2000
    9.1153   -3.6788    0.0000 F   0  0  0  0  0  0  0  0  0
    8.7035   -2.9640    0.0000 C   0  0  0  0  0  0  0  0  0
    7.8785   -2.9632    0.0000 C   0  0  0  0  0  0  0  0  0
    7.4667   -2.2483    0.0000 C   0  0  0  0  0  0  0  0  0
    7.8799   -1.5342    0.0000 C   0  0  0  0  0  0  0  0  0
    8.7049   -1.5350    0.0000 C   0  0  0  0  0  0  0  0  0
    9.1167   -2.2499    0.0000 C   0  0  0  0  0  0  0  0  0
    7.4681   -0.8193    0.0000 C   0  0  0  0  0  0  0  0  0
    7.8813   -0.1053    0.0000 O   0  0  0  0  0  0  0  0  0
    6.6431   -0.8185    0.0000 C   0  0  0  0  0  0  0  0  0
    6.2313   -0.1036    0.0000 C   0  0  0  0  0  0  0  0  0
    5.4063   -0.1028    0.0000 C   0  0  0  0  0  0  0  0  0
    4.9945    0.6120    0.0000 N   0  0  0  0  0  0  0  0  0
    4.4783    1.0407    0.0000 C   0  0  0  0  0  0  0  0  0
    3.5066    1.0407    0.0000 C   0  0  0  0  0  0  0  0  0
    3.3669    1.8538    0.0000 N   0  0  0  0  0  0  0  0  0
    3.9275    1.4139    0.0000 C   0  0  0  0  0  0  0  0  0
    3.6070    0.7053    0.0000 C   0  0  0  0  0  0  0  0  0
    2.9867    0.3284    0.0000 C   0  0  0  0  0  0  0  0  0
    4.8563    1.4294    0.0000 C   0  0  0  0  0  0  0  0  0
    2.9443    2.5624    0.0000 C   0  0  0  0  0  0  0  0  0
    2.1194    2.5507    0.0000 C   0  0  0  0  0  0  0  0  0
    1.6968    3.2592    0.0000 C   0  0  0  0  0  0  0  0  0
    2.0991    3.9795    0.0000 C   0  0  0  0  0  0  0  0  0
    2.9240    3.9912    0.0000 C   0  0  0  0  0  0  0  0  0
    3.3466    3.2826    0.0000 C   0  0  0  0  0  0  0  0  0
  1  2  1  0  0  0  0
  2  3  4  0  0  0  0
  2  7  4  0  0  0  0
  3  4  4  0  0  0  0
  4  5  4  0  0  0  0
  5  6  4  0  0  0  0
  5  8  1  0  0  0  0
  6  7  4  0  0  0  0
  8  9  2  0  0  0  0
  8 10  1  0  0  0  0
 10 11  1  0  0  0  0
 11 12  1  0  0  0  0
 12 13  1  0  0  0  0
 13 14  1  0  0  0  0
 13 20  1  0  0  0  0
 14 15  1  0  0  0  0
 15 16  1  0  0  0  0
 15 19  1  0  0  0  0
 16 17  1  0  0  0  0
 16 21  1  0  0  0  0
 17 18  1  0  0  0  0
 17 20  1  0  0  0  0
 18 19  1  0  0  0  0
 21 22  4  0  0  0  0
 21 26  4  0  0  0  0
 22 23  4  0  0  0  0
 23 24  4  0  0  0  0
 24 25  4  0  0  0  0
 25 26  4  0  0  0  0
M  END
>  <Name_Molregno>
489871

>  <DOPAMINE D2>
6.81

>  <DOPAMINE D3>
6.22

>  <DOPAMINE D4>
5.68

$$$$
489872
  Marvin  02231216192D 0   1.00000     0.00000     0

 26 29  0  0  1  0  0  0  0  0999 V2000
    0.9205   -3.5070    0.0000 Cl  0  0  0  0  0  0  0  0  0
    1.5152   -2.9351    0.0000 C   0  0  0  0  0  0  0  0  0
    1.3172   -2.1343    0.0000 C   0  0  0  0  0  0  0  0  0
    1.9118   -1.5623    0.0000 C   0  0  0  0  0  0  0  0  0
    2.7044   -1.7913    0.0000 C   0  0  0  0  0  0  0  0  0
    3.2990   -1.2194    0.0000 N   0  0  0  0  0  0  0  0  0
    4.0745   -0.8291    0.0000 C   0  0  0  0  0  0  0  0  0
    4.1446    0.7067    0.0000 C   0  0  0  0  0  0  0  0  0
    4.3046   -0.1087    0.0000 C   0  0  0  0  0  0  0  0  0
    5.1001   -0.5740    0.0000 N   0  0  0  0  0  0  0  0  0
    4.8050   -1.1994    0.0000 C   0  0  0  0  0  0  0  0  0
    5.8881   -0.3300    0.0000 C   0  0  0  0  0  0  0  0  0
    6.0708    0.4745    0.0000 C   0  0  0  0  0  0  0  0  0
    6.8589    0.7186    0.0000 C   0  0  0  0  0  0  0  0  0
    7.0415    1.5231    0.0000 C   0  0  0  0  0  0  0  0  0
    6.4361    2.0836    0.0000 O   0  0  0  0  0  0  0  0  0
    7.8296    1.7672    0.0000 C   0  0  0  0  0  0  0  0  0
    8.0123    2.5717    0.0000 C   0  0  0  0  0  0  0  0  0
    8.8004    2.8158    0.0000 C   0  0  0  0  0  0  0  0  0
    9.4058    2.2553    0.0000 C   0  0  0  0  0  0  0  0  0
   10.1938    2.4994    0.0000 F   0  0  0  0  0  0  0  0  0
    9.2231    1.4508    0.0000 C   0  0  0  0  0  0  0  0  0
    8.4350    1.2067    0.0000 C   0  0  0  0  0  0  0  0  0
    3.6643   -0.5589    0.0000 C   0  0  0  0  0  0  0  0  0
    2.9023   -2.5922    0.0000 C   0  0  0  0  0  0  0  0  0
    2.3077   -3.1641    0.0000 C   0  0  0  0  0  0  0  0  0
  1  2  1  0  0  0  0
  2  3  4  0  0  0  0
  2 26  4  0  0  0  0
  3  4  4  0  0  0  0
  4  5  4  0  0  0  0
  5  6  1  0  0  0  0
  5 25  4  0  0  0  0
  6  7  1  0  0  0  0
  6 24  1  0  0  0  0
  7  8  1  0  0  0  0
  7 11  1  0  0  0  0
  8  9  1  0  0  0  0
  9 10  1  0  0  0  0
  9 24  1  0  0  0  0
 10 11  1  0  0  0  0
 10 12  1  0  0  0  0
 12 13  1  0  0  0  0
 13 14  1  0  0  0  0
 14 15  1  0  0  0  0
 15 16  2  0  0  0  0
 15 17  1  0  0  0  0
 17 18  4  0  0  0  0
 17 23  4  0  0  0  0
 18 19  4  0  0  0  0
 19 20  4  0  0  0  0
 20 21  1  0  0  0  0
 20 22  4  0  0  0  0
 22 23  4  0  0  0  0
 25 26  4  0  0  0  0
M  END
>  <Name_Molregno>
489872

>  <DOPAMINE D2>
6.77

>  <DOPAMINE D3>
6.66

>  <DOPAMINE D4>
6.28

$$$$
489873
  Marvin  02231216192D 0   1.00000     0.00000     0

 25 27  0  0  0  0  0  0  0  0999 V2000
    0.2794    2.6940    0.0000 Cl  0  0  0  0  0  0  0  0  0
    0.9939    2.2815    0.0000 C   0  0  0  0  0  0  0  0  0
    1.7084    2.6940    0.0000 C   0  0  0  0  0  0  0  0  0
    2.4228    2.2815    0.0000 C   0  0  0  0  0  0  0  0  0
    2.4228    1.4565    0.0000 C   0  0  0  0  0  0  0  0  0
    3.1373    1.0440    0.0000 N   0  0  0  0  0  0  0  0  0
    3.8518    1.4565    0.0000 C   0  0  0  0  0  0  0  0  0
    4.5663    1.0440    0.0000 C   0  0  0  0  0  0  0  0  0
    4.5663    0.2190    0.0000 N   0  0  0  0  0  0  0  0  0
    3.8518   -0.1935    0.0000 C   0  0  0  0  0  0  0  0  0
    3.1373    0.2190    0.0000 C   0  0  0  0  0  0  0  0  0
    5.2807   -0.1935    0.0000 C   0  0  0  0  0  0  0  0  0
    5.9952    0.2190    0.0000 C   0  0  0  0  0  0  0  0  0
    6.7097   -0.1935    0.0000 C   0  0  0  0  0  0  0  0  0
    7.4241    0.2190    0.0000 C   0  0  0  0  0  0  0  0  0
    7.4241    1.0440    0.0000 O   0  0  0  0  0  0  0  0  0
    8.1386   -0.1935    0.0000 C   0  0  0  0  0  0  0  0  0
    8.8531    0.2190    0.0000 C   0  0  0  0  0  0  0  0  0
    9.5676   -0.1935    0.0000 C   0  0  0  0  0  0  0  0  0
    9.5676   -1.0185    0.0000 C   0  0  0  0  0  0  0  0  0
   10.2820   -1.4310    0.0000 F   0  0  0  0  0  0  0  0  0
    8.8531   -1.4310    0.0000 C   0  0  0  0  0  0  0  0  0
    8.1386   -1.0185    0.0000 C   0  0  0  0  0  0  0  0  0
    1.7084    1.0440    0.0000 C   0  0  0  0  0  0  0  0  0
    0.9939    1.4565    0.0000 C   0  0  0  0  0  0  0  0  0
  1  2  1  0  0  0  0
  2  3  4  0  0  0  0
  2 25  4  0  0  0  0
  3  4  4  0  0  0  0
  4  5  4  0  0  0  0
  5  6  1  0  0  0  0
  5 24  4  0  0  0  0
  6  7  1  0  0  0  0
  6 11  1  0  0  0  0
  7  8  1  0  0  0  0
  8  9  1  0  0  0  0
  9 10  1  0  0  0  0
  9 12  1  0  0  0  0
 10 11  1  0  0  0  0
 12 13  1  0  0  0  0
 13 14  1  0  0  0  0
 14 15  1  0  0  0  0
 15 16  2  0  0  0  0
 15 17  1  0  0  0  0
 17 18  4  0  0  0  0
 17 23  4  0  0  0  0
 18 19  4  0  0  0  0
 19 20  4  0  0  0  0
 20 21  1  0  0  0  0
 20 22  4  0  0  0  0
 22 23  4  0  0  0  0
 24 25  4  0  0  0  0
M  END
>  <Name_Molregno>
489873

>  <5-HT1A>
7.04

>  <5-HT2A>
6.96

>  <5-HT2C>
5.45

>  <DOPAMINE D2>
6.6

>  <DOPAMINE D4>
7.77

>  <HISTAMINE H1>
6.8

$$$$
489941
  Marvin  02231216192D 0   1.00000     0.00000     0

 27 30  0  0  1  0  0  0  0  0999 V2000
    1.9851    3.9912    0.0000 F   0  0  0  0  0  0  0  0  0
    2.4077    3.2826    0.0000 C   0  0  0  0  0  0  0  0  0
    3.2326    3.2943    0.0000 C   0  0  0  0  0  0  0  0  0
    3.6552    2.5858    0.0000 C   0  0  0  0  0  0  0  0  0
    3.2529    1.8656    0.0000 C   0  0  0  0  0  0  0  0  0
    2.4280    1.8538    0.0000 C   0  0  0  0  0  0  0  0  0
    2.0054    2.5624    0.0000 C   0  0  0  0  0  0  0  0  0
    3.6755    1.1570    0.0000 C   0  0  0  0  0  0  0  0  0
    3.2732    0.4368    0.0000 O   0  0  0  0  0  0  0  0  0
    4.5004    1.1687    0.0000 C   0  0  0  0  0  0  0  0  0
    4.9230    0.4602    0.0000 C   0  0  0  0  0  0  0  0  0
    5.7480    0.4719    0.0000 C   0  0  0  0  0  0  0  0  0
    6.1706   -0.2366    0.0000 N   0  0  0  0  0  0  0  0  0
    6.7312   -0.6765    0.0000 C   0  0  0  0  0  0  0  0  0
    7.6600   -0.6610    0.0000 C   0  0  0  0  0  0  0  0  0
    7.7982   -1.4784    0.0000 C   0  0  0  0  0  0  0  0  0
    8.6173   -1.5767    0.0000 O   0  0  0  0  0  0  0  0  0
    7.2820   -1.0497    0.0000 C   0  0  0  0  0  0  0  0  0
    6.3103   -1.0497    0.0000 C   0  0  0  0  0  0  0  0  0
    5.7904   -1.7620    0.0000 C   0  0  0  0  0  0  0  0  0
    6.4107   -1.3851    0.0000 C   0  0  0  0  0  0  0  0  0
    7.4722   -2.2363    0.0000 C   0  0  0  0  0  0  0  0  0
    7.9655   -2.8975    0.0000 C   0  0  0  0  0  0  0  0  0
    7.6395   -3.6554    0.0000 C   0  0  0  0  0  0  0  0  0
    6.8202   -3.7520    0.0000 C   0  0  0  0  0  0  0  0  0
    6.3269   -3.0908    0.0000 C   0  0  0  0  0  0  0  0  0
    6.6529   -2.3329    0.0000 C   0  0  0  0  0  0  0  0  0
  1  2  1  0  0  0  0
  2  3  4  0  0  0  0
  2  7  4  0  0  0  0
  3  4  4  0  0  0  0
  4  5  4  0  0  0  0
  5  6  4  0  0  0  0
  5  8  1  0  0  0  0
  6  7  4  0  0  0  0
  8  9  2  0  0  0  0
  8 10  1  0  0  0  0
 10 11  1  0  0  0  0
 11 12  1  0  0  0  0
 12 13  1  0  0  0  0
 13 14  1  0  0  0  0
 13 19  1  0  0  0  0
 14 15  1  0  0  0  0
 14 21  1  0  0  0  0
 15 16  1  0  0  0  0
 16 17  1  0  0  0  0
 16 18  1  0  0  0  0
 16 22  1  0  0  0  0
 18 19  1  0  0  0  0
 19 20  1  0  0  0  0
 20 21  1  0  0  0  0
 22 23  4  0  0  0  0
 22 27  4  0  0  0  0
 23 24  4  0  0  0  0
 24 25  4  0  0  0  0
 25 26  4  0  0  0  0
 26 27  4  0  0  0  0
M  END
>  <Name_Molregno>
489941

>  <5-HT1A>
7.42

>  <5-HT2A>
7.91

>  <5-HT2C>
5

>  <DOPAMINE D2>
8.64

>  <DOPAMINE D4>
7.72

>  <HISTAMINE H1>
6.2

$$$$
490001
  Marvin  02231216192D 0   1.00000     0.00000     0

 26 28  0  0  0  0  0  0  0  0999 V2000
   -0.1047    1.0755    0.0000 Cl  0  0  0  0  0  0  0  0  0
    0.7180    1.0139    0.0000 C   0  0  0  0  0  0  0  0  0
    1.1827    1.6955    0.0000 C   0  0  0  0  0  0  0  0  0
    2.0054    1.6339    0.0000 C   0  0  0  0  0  0  0  0  0
    2.3634    0.8906    0.0000 C   0  0  0  0  0  0  0  0  0
    3.1860    0.8289    0.0000 N   0  0  0  0  0  0  0  0  0
    3.5985    1.5434    0.0000 C   0  0  0  0  0  0  0  0  0
    4.4143    1.6663    0.0000 C   0  0  0  0  0  0  0  0  0
    5.0191    1.1052    0.0000 C   0  0  0  0  0  0  0  0  0
    4.9574    0.2825    0.0000 N   0  0  0  0  0  0  0  0  0
    4.2758   -0.1822    0.0000 C   0  0  0  0  0  0  0  0  0
    3.4875    0.0609    0.0000 C   0  0  0  0  0  0  0  0  0
    5.6719   -0.1300    0.0000 C   0  0  0  0  0  0  0  0  0
    6.3864    0.2825    0.0000 C   0  0  0  0  0  0  0  0  0
    7.1009   -0.1300    0.0000 C   0  0  0  0  0  0  0  0  0
    7.8153    0.2825    0.0000 C   0  0  0  0  0  0  0  0  0
    7.8153    1.1075    0.0000 O   0  0  0  0  0  0  0  0  0
    8.5298   -0.1300    0.0000 C   0  0  0  0  0  0  0  0  0
    9.2443    0.2825    0.0000 C   0  0  0  0  0  0  0  0  0
    9.9587   -0.1300    0.0000 C   0  0  0  0  0  0  0  0  0
    9.9587   -0.9550    0.0000 C   0  0  0  0  0  0  0  0  0
   10.6732   -1.3675    0.0000 F   0  0  0  0  0  0  0  0  0
    9.2443   -1.3675    0.0000 C   0  0  0  0  0  0  0  0  0
    8.5298   -0.9550    0.0000 C   0  0  0  0  0  0  0  0  0
    1.8986    0.2089    0.0000 C   0  0  0  0  0  0  0  0  0
    1.0759    0.2706    0.0000 C   0  0  0  0  0  0  0  0  0
  1  2  1  0  0  0  0
  2  3  4  0  0  0  0
  2 26  4  0  0  0  0
  3  4  4  0  0  0  0
  4  5  4  0  0  0  0
  5  6  1  0  0  0  0
  5 25  4  0  0  0  0
  6  7  1  0  0  0  0
  6 12  1  0  0  0  0
  7  8  1  0  0  0  0
  8  9  1  0  0  0  0
  9 10  1  0  0  0  0
 10 11  1  0  0  0  0
 10 13  1  0  0  0  0
 11 12  1  0  0  0  0
 13 14  1  0  0  0  0
 14 15  1  0  0  0  0
 15 16  1  0  0  0  0
 16 17  2  0  0  0  0
 16 18  1  0  0  0  0
 18 19  4  0  0  0  0
 18 24  4  0  0  0  0
 19 20  4  0  0  0  0
 20 21  4  0  0  0  0
 21 22  1  0  0  0  0
 21 23  4  0  0  0  0
 23 24  4  0  0  0  0
 25 26  4  0  0  0  0
M  END
>  <Name_Molregno>
490001

>  <5-HT1A>
6.93

>  <5-HT2A>
7.63

>  <5-HT2C>
5.85

>  <5-HT6>
6.53

>  <DOPAMINE D1>
6.79

>  <DOPAMINE D2>
7.36

>  <DOPAMINE D3>
6.8

>  <DOPAMINE D4>
8.18

>  <Dopamine transporter>
5.94

>  <HISTAMINE H1>
6.72

>  <Muscarinic acetylcholine receptor M1>
6.06

>  <Serotonin transporter>
7.25

$$$$
490002
  Marvin  02231216192D 0   1.00000     0.00000     0

 28 31  0  0  1  0  0  0  0  0999 V2000
    2.5267   -4.2916    0.0000 Cl  0  0  0  0  0  0  0  0  0
    3.0577   -3.6602    0.0000 C   0  0  0  0  0  0  0  0  0
    2.7764   -2.8847    0.0000 C   0  0  0  0  0  0  0  0  0
    3.3075   -2.2533    0.0000 C   0  0  0  0  0  0  0  0  0
    4.1198   -2.3975    0.0000 C   0  0  0  0  0  0  0  0  0
    4.6508   -1.7661    0.0000 N   0  0  0  0  0  0  0  0  0
    5.4718   -1.9734    0.0000 C   0  0  0  0  0  0  0  0  0
    6.0885   -1.7178    0.0000 C   0  0  0  0  0  0  0  0  0
    6.0885   -0.4604    0.0000 N   0  0  0  0  0  0  0  0  0
    5.8763   -1.2409    0.0000 C   0  0  0  0  0  0  0  0  0
    6.7076   -1.6094    0.0000 C   0  0  0  0  0  0  0  0  0
    6.9098   -2.1415    0.0000 C   0  0  0  0  0  0  0  0  0
    5.0599   -1.0379    0.0000 C   0  0  0  0  0  0  0  0  0
    4.4405   -1.2946    0.0000 C   0  0  0  0  0  0  0  0  0
    6.1977    0.3573    0.0000 C   0  0  0  0  0  0  0  0  0
    5.5441    0.8607    0.0000 C   0  0  0  0  0  0  0  0  0
    5.6533    1.6785    0.0000 C   0  0  0  0  0  0  0  0  0
    4.9997    2.1819    0.0000 C   0  0  0  0  0  0  0  0  0
    4.2369    1.8676    0.0000 O   0  0  0  0  0  0  0  0  0
    5.1089    2.9996    0.0000 C   0  0  0  0  0  0  0  0  0
    4.4553    3.5031    0.0000 C   0  0  0  0  0  0  0  0  0
    4.5644    4.3208    0.0000 C   0  0  0  0  0  0  0  0  0
    5.3272    4.6351    0.0000 C   0  0  0  0  0  0  0  0  0
    5.4364    5.4529    0.0000 F   0  0  0  0  0  0  0  0  0
    5.9808    4.1317    0.0000 C   0  0  0  0  0  0  0  0  0
    5.8716    3.3140    0.0000 C   0  0  0  0  0  0  0  0  0
    4.4010   -3.1731    0.0000 C   0  0  0  0  0  0  0  0  0
    3.8700   -3.8044    0.0000 C   0  0  0  0  0  0  0  0  0
  1  2  1  0  0  0  0
  2  3  4  0  0  0  0
  2 28  4  0  0  0  0
  3  4  4  0  0  0  0
  4  5  4  0  0  0  0
  5  6  1  0  0  0  0
  5 27  4  0  0  0  0
  6  7  1  0  0  0  0
  6 14  1  0  0  0  0
  7  8  1  0  0  0  0
  8  9  1  0  0  0  0
  8 12  1  0  0  0  0
  9 10  1  0  0  0  0
  9 15  1  0  0  0  0
 10 11  1  0  0  0  0
 10 13  1  0  0  0  0
 11 12  1  0  0  0  0
 13 14  1  0  0  0  0
 15 16  1  0  0  0  0
 16 17  1  0  0  0  0
 17 18  1  0  0  0  0
 18 19  2  0  0  0  0
 18 20  1  0  0  0  0
 20 21  4  0  0  0  0
 20 26  4  0  0  0  0
 21 22  4  0  0  0  0
 22 23  4  0  0  0  0
 23 24  1  0  0  0  0
 23 25  4  0  0  0  0
 25 26  4  0  0  0  0
 27 28  4  0  0  0  0
M  END
>  <Name_Molregno>
490002

>  <5-HT1A>
5.63

>  <5-HT2A>
6.71

>  <5-HT2C>
5.45

>  <DOPAMINE D2>
6.75

>  <DOPAMINE D3>
6.26

>  <DOPAMINE D4>
7.38

>  <HISTAMINE H1>
5.99

$$$$
498641
  Marvin  02231216192D 0   1.00000     0.00000     0

 28 31  0  0  0  0  0  0  0  0999 V2000
   -6.8294    1.8775    0.0000 Cl  0  0  0  0  0  0  0  0  0
   -7.2419    1.1630    0.0000 C   0  0  0  0  0  0  0  0  0
   -6.8294    0.4485    0.0000 C   0  0  0  0  0  0  0  0  0
   -6.0044    0.4485    0.0000 N   0  0  0  0  0  0  0  0  0
   -5.5919    1.1630    0.0000 C   0  0  0  0  0  0  0  0  0
   -4.7669    1.1630    0.0000 C   0  0  0  0  0  0  0  0  0
   -4.3544    0.4485    0.0000 N   0  0  0  0  0  0  0  0  0
   -4.7669   -0.2660    0.0000 C   0  0  0  0  0  0  0  0  0
   -5.5919   -0.2660    0.0000 C   0  0  0  0  0  0  0  0  0
   -3.5294    0.4485    0.0000 C   0  0  0  0  0  0  0  0  0
   -3.1169   -0.2660    0.0000 C   0  0  0  0  0  0  0  0  0
   -2.2919   -0.2660    0.0000 N   0  0  0  0  0  0  0  0  0
   -1.8794   -0.9804    0.0000 C   0  0  0  0  0  0  0  0  0
   -2.2919   -1.6949    0.0000 O   0  0  0  0  0  0  0  0  0
   -1.0544   -0.9804    0.0000 C   0  0  0  0  0  0  0  0  0
   -0.5695   -1.6479    0.0000 S   0  0  0  0  0  0  0  0  0
    0.2151   -1.3929    0.0000 C   0  0  0  0  0  0  0  0  0
    0.2151   -0.5679    0.0000 C   0  0  0  0  0  0  0  0  0
   -0.5695   -0.3130    0.0000 C   0  0  0  0  0  0  0  0  0
    0.9296   -0.1554    0.0000 C   0  0  0  0  0  0  0  0  0
    1.6440   -0.5679    0.0000 C   0  0  0  0  0  0  0  0  0
    1.6440   -1.3929    0.0000 C   0  0  0  0  0  0  0  0  0
    0.9296   -1.8054    0.0000 C   0  0  0  0  0  0  0  0  0
   -7.2419   -0.2660    0.0000 C   0  0  0  0  0  0  0  0  0
   -8.0669   -0.2660    0.0000 C   0  0  0  0  0  0  0  0  0
   -8.4794    0.4485    0.0000 C   0  0  0  0  0  0  0  0  0
   -8.0669    1.1630    0.0000 C   0  0  0  0  0  0  0  0  0
   -8.4794    1.8775    0.0000 Cl  0  0  0  0  0  0  0  0  0
  1  2  1  0  0  0  0
  2  3  4  0  0  0  0
  2 27  4  0  0  0  0
  3  4  1  0  0  0  0
  3 24  4  0  0  0  0
  4  5  1  0  0  0  0
  4  9  1  0  0  0  0
  5  6  1  0  0  0  0
  6  7  1  0  0  0  0
  7  8  1  0  0  0  0
  7 10  1  0  0  0  0
  8  9  1  0  0  0  0
 10 11  2  0  0  0  0
 11 12  1  0  0  0  0
 12 13  1  0  0  0  0
 13 14  2  0  0  0  0
 13 15  1  0  0  0  0
 15 16  4  0  0  0  0
 15 19  4  0  0  0  0
 16 17  4  0  0  0  0
 17 18  4  0  0  0  0
 17 23  4  0  0  0  0
 18 19  4  0  0  0  0
 18 20  4  0  0  0  0
 20 21  4  0  0  0  0
 21 22  4  0  0  0  0
 22 23  4  0  0  0  0
 24 25  4  0  0  0  0
 25 26  4  0  0  0  0
 26 27  4  0  0  0  0
 27 28  1  0  0  0  0
M  END
>  <Name_Molregno>
498641

>  <DOPAMINE D3>
8.95

>  <DOPAMINE D4>
5.75

$$$$
498643
  Marvin  02231216192D 0   1.00000     0.00000     0

 29 32  0  0  1  0  0  0  0  0999 V2000
   -6.8417    1.8761    0.0000 Cl  0  0  0  0  0  0  0  0  0
   -7.2542    1.1617    0.0000 C   0  0  0  0  0  0  0  0  0
   -6.8417    0.4472    0.0000 C   0  0  0  0  0  0  0  0  0
   -6.0167    0.4472    0.0000 N   0  0  0  0  0  0  0  0  0
   -5.6042    1.1617    0.0000 C   0  0  0  0  0  0  0  0  0
   -4.7792    1.1617    0.0000 C   0  0  0  0  0  0  0  0  0
   -4.3667    0.4472    0.0000 N   0  0  0  0  0  0  0  0  0
   -4.7792   -0.2673    0.0000 C   0  0  0  0  0  0  0  0  0
   -5.6042   -0.2673    0.0000 C   0  0  0  0  0  0  0  0  0
   -3.5417    0.4472    0.0000 C   0  0  0  0  0  0  0  0  0
   -3.1292    1.1617    0.0000 O   0  0  0  0  0  0  0  0  0
   -3.1292   -0.2673    0.0000 C   0  0  0  0  0  0  0  0  0
   -2.3042   -0.2673    0.0000 N   0  0  0  0  0  0  0  0  0
   -1.8917   -0.9818    0.0000 C   0  0  0  0  0  0  0  0  0
   -2.3042   -1.6962    0.0000 O   0  0  0  0  0  0  0  0  0
   -1.0667   -0.9818    0.0000 C   0  0  0  0  0  0  0  0  0
   -0.5818   -1.6492    0.0000 N   0  0  0  0  0  0  0  0  0
    0.2029   -1.3943    0.0000 C   0  0  0  0  0  0  0  0  0
    0.2029   -0.5693    0.0000 C   0  0  0  0  0  0  0  0  0
   -0.5818   -0.3143    0.0000 C   0  0  0  0  0  0  0  0  0
    0.9173   -0.1568    0.0000 C   0  0  0  0  0  0  0  0  0
    1.6318   -0.5693    0.0000 C   0  0  0  0  0  0  0  0  0
    1.6318   -1.3943    0.0000 C   0  0  0  0  0  0  0  0  0
    0.9173   -1.8068    0.0000 C   0  0  0  0  0  0  0  0  0
   -7.2542   -0.2673    0.0000 C   0  0  0  0  0  0  0  0  0
   -8.0792   -0.2673    0.0000 C   0  0  0  0  0  0  0  0  0
   -8.4917    0.4472    0.0000 C   0  0  0  0  0  0  0  0  0
   -8.0792    1.1617    0.0000 C   0  0  0  0  0  0  0  0  0
   -8.4917    1.8761    0.0000 Cl  0  0  0  0  0  0  0  0  0
  1  2  1  0  0  0  0
  2  3  4  0  0  0  0
  2 28  4  0  0  0  0
  3  4  1  0  0  0  0
  3 25  4  0  0  0  0
  4  5  1  0  0  0  0
  4  9  1  0  0  0  0
  5  6  1  0  0  0  0
  6  7  1  0  0  0  0
  7  8  1  0  0  0  0
  7 10  1  0  0  0  0
  8  9  1  0  0  0  0
 10 11  1  0  0  0  0
 10 12  1  0  0  0  0
 12 13  1  0  0  0  0
 13 14  1  0  0  0  0
 14 15  2  0  0  0  0
 14 16  1  0  0  0  0
 16 17  4  0  0  0  0
 16 20  4  0  0  0  0
 17 18  4  0  0  0  0
 18 19  4  0  0  0  0
 18 24  4  0  0  0  0
 19 20  4  0  0  0  0
 19 21  4  0  0  0  0
 21 22  4  0  0  0  0
 22 23  4  0  0  0  0
 23 24  4  0  0  0  0
 25 26  4  0  0  0  0
 26 27  4  0  0  0  0
 27 28  4  0  0  0  0
 28 29  1  0  0  0  0
M  STY  1   1 DAT
M  SAL   1  1  17
M  SDT   1 MRV_IMPLICIT_H                                        
M  SDD   1     0.0000    0.0000    DR    ALL  0       0  
M  SED   1 IMPL_H1
M  END
>  <Name_Molregno>
498643

>  <DOPAMINE D3>
8.53

>  <DOPAMINE D4>
5.36

$$$$
498713
  Marvin  02231216192D 0   1.00000     0.00000     0

 29 32  0  0  1  0  0  0  0  0999 V2000
   -6.9081   -1.8695    0.0000 O   0  0  0  0  0  0  0  0  0
   -7.3206   -2.5840    0.0000 C   0  0  0  0  0  0  0  0  0
   -7.3206   -1.1550    0.0000 C   0  0  0  0  0  0  0  0  0
   -8.1456   -1.1550    0.0000 C   0  0  0  0  0  0  0  0  0
   -8.5581   -0.4406    0.0000 C   0  0  0  0  0  0  0  0  0
   -8.1456    0.2739    0.0000 C   0  0  0  0  0  0  0  0  0
   -7.3206    0.2739    0.0000 C   0  0  0  0  0  0  0  0  0
   -6.9081   -0.4406    0.0000 C   0  0  0  0  0  0  0  0  0
   -6.0831   -0.4406    0.0000 N   0  0  0  0  0  0  0  0  0
   -5.6706    0.2739    0.0000 C   0  0  0  0  0  0  0  0  0
   -4.8456    0.2739    0.0000 C   0  0  0  0  0  0  0  0  0
   -4.4331   -0.4406    0.0000 N   0  0  0  0  0  0  0  0  0
   -4.8456   -1.1550    0.0000 C   0  0  0  0  0  0  0  0  0
   -5.6706   -1.1550    0.0000 C   0  0  0  0  0  0  0  0  0
   -3.6081   -0.4406    0.0000 C   0  0  0  0  0  0  0  0  0
   -3.1956   -1.1550    0.0000 O   0  0  0  0  0  0  0  0  0
   -3.1956    0.2739    0.0000 C   0  0  0  0  0  0  0  0  0
   -2.3706    0.2739    0.0000 N   0  0  0  0  0  0  0  0  0
   -1.9581    0.9884    0.0000 C   0  0  0  0  0  0  0  0  0
   -2.3706    1.7029    0.0000 O   0  0  0  0  0  0  0  0  0
   -1.1331    0.9884    0.0000 C   0  0  0  0  0  0  0  0  0
   -0.6482    0.3209    0.0000 N   0  0  0  0  0  0  0  0  0
    0.1364    0.5759    0.0000 C   0  0  0  0  0  0  0  0  0
    0.1364    1.4009    0.0000 C   0  0  0  0  0  0  0  0  0
   -0.6482    1.6558    0.0000 C   0  0  0  0  0  0  0  0  0
    0.8509    1.8134    0.0000 C   0  0  0  0  0  0  0  0  0
    1.5654    1.4009    0.0000 C   0  0  0  0  0  0  0  0  0
    1.5654    0.5759    0.0000 C   0  0  0  0  0  0  0  0  0
    0.8509    0.1634    0.0000 C   0  0  0  0  0  0  0  0  0
  1  2  1  0  0  0  0
  1  3  1  0  0  0  0
  3  4  4  0  0  0  0
  3  8  4  0  0  0  0
  4  5  4  0  0  0  0
  5  6  4  0  0  0  0
  6  7  4  0  0  0  0
  7  8  4  0  0  0  0
  8  9  1  0  0  0  0
  9 10  1  0  0  0  0
  9 14  1  0  0  0  0
 10 11  1  0  0  0  0
 11 12  1  0  0  0  0
 12 13  1  0  0  0  0
 12 15  1  0  0  0  0
 13 14  1  0  0  0  0
 15 16  1  0  0  0  0
 15 17  1  0  0  0  0
 17 18  1  0  0  0  0
 18 19  1  0  0  0  0
 19 20  2  0  0  0  0
 19 21  1  0  0  0  0
 21 22  4  0  0  0  0
 21 25  4  0  0  0  0
 22 23  4  0  0  0  0
 23 24  4  0  0  0  0
 23 29  4  0  0  0  0
 24 25  4  0  0  0  0
 24 26  4  0  0  0  0
 26 27  4  0  0  0  0
 27 28  4  0  0  0  0
 28 29  4  0  0  0  0
M  STY  1   1 DAT
M  SAL   1  1  22
M  SDT   1 MRV_IMPLICIT_H                                        
M  SDD   1     0.0000    0.0000    DR    ALL  0       0  
M  SED   1 IMPL_H1
M  END
>  <Name_Molregno>
498713

>  <DOPAMINE D3>
8.85

>  <DOPAMINE D4>
5.72

$$$$
498869
  Marvin  02231216192D 0   1.00000     0.00000     0

 30 33  0  0  1  0  0  0  0  0999 V2000
   -7.2376    1.8842    0.0000 Cl  0  0  0  0  0  0  0  0  0
   -7.6501    1.1698    0.0000 C   0  0  0  0  0  0  0  0  0
   -7.2376    0.4553    0.0000 C   0  0  0  0  0  0  0  0  0
   -6.4126    0.4553    0.0000 N   0  0  0  0  0  0  0  0  0
   -6.0001    1.1698    0.0000 C   0  0  0  0  0  0  0  0  0
   -5.1751    1.1698    0.0000 C   0  0  0  0  0  0  0  0  0
   -4.7626    0.4553    0.0000 N   0  0  0  0  0  0  0  0  0
   -5.1751   -0.2592    0.0000 C   0  0  0  0  0  0  0  0  0
   -6.0001   -0.2592    0.0000 C   0  0  0  0  0  0  0  0  0
   -3.9376    0.4553    0.0000 C   0  0  0  0  0  0  0  0  0
   -3.5251    1.1698    0.0000 O   0  0  0  0  0  0  0  0  0
   -3.5251   -0.2592    0.0000 C   0  0  0  0  0  0  0  0  0
   -2.7001   -0.2592    0.0000 N   0  0  0  0  0  0  0  0  0
   -2.2876   -0.9737    0.0000 C   0  0  0  0  0  0  0  0  0
   -2.7001   -1.6881    0.0000 O   0  0  0  0  0  0  0  0  0
   -1.4626   -0.9737    0.0000 C   0  0  0  0  0  0  0  0  0
   -0.9777   -1.6411    0.0000 N   0  0  0  0  0  0  0  0  0
   -0.1931   -1.3862    0.0000 C   0  0  0  0  0  0  0  0  0
   -0.1931   -0.5612    0.0000 C   0  0  0  0  0  0  0  0  0
   -0.9777   -0.3062    0.0000 C   0  0  0  0  0  0  0  0  0
    0.5214   -0.1487    0.0000 C   0  0  0  0  0  0  0  0  0
    1.2359   -0.5612    0.0000 C   0  0  0  0  0  0  0  0  0
    1.9503   -0.1487    0.0000 F   0  0  0  0  0  0  0  0  0
    1.2359   -1.3862    0.0000 C   0  0  0  0  0  0  0  0  0
    0.5214   -1.7987    0.0000 C   0  0  0  0  0  0  0  0  0
   -7.6501   -0.2592    0.0000 C   0  0  0  0  0  0  0  0  0
   -8.4751   -0.2592    0.0000 C   0  0  0  0  0  0  0  0  0
   -8.8876    0.4553    0.0000 C   0  0  0  0  0  0  0  0  0
   -8.4751    1.1698    0.0000 C   0  0  0  0  0  0  0  0  0
   -8.8876    1.8842    0.0000 Cl  0  0  0  0  0  0  0  0  0
  1  2  1  0  0  0  0
  2  3  4  0  0  0  0
  2 29  4  0  0  0  0
  3  4  1  0  0  0  0
  3 26  4  0  0  0  0
  4  5  1  0  0  0  0
  4  9  1  0  0  0  0
  5  6  1  0  0  0  0
  6  7  1  0  0  0  0
  7  8  1  0  0  0  0
  7 10  1  0  0  0  0
  8  9  1  0  0  0  0
 10 11  1  0  0  0  0
 10 12  1  0  0  0  0
 12 13  1  0  0  0  0
 13 14  1  0  0  0  0
 14 15  2  0  0  0  0
 14 16  1  0  0  0  0
 16 17  4  0  0  0  0
 16 20  4  0  0  0  0
 17 18  4  0  0  0  0
 18 19  4  0  0  0  0
 18 25  4  0  0  0  0
 19 20  4  0  0  0  0
 19 21  4  0  0  0  0
 21 22  4  0  0  0  0
 22 23  1  0  0  0  0
 22 24  4  0  0  0  0
 24 25  4  0  0  0  0
 26 27  4  0  0  0  0
 27 28  4  0  0  0  0
 28 29  4  0  0  0  0
 29 30  1  0  0  0  0
M  STY  1   1 DAT
M  SAL   1  1  17
M  SDT   1 MRV_IMPLICIT_H                                        
M  SDD   1     0.0000    0.0000    DR    ALL  0       0  
M  SED   1 IMPL_H1
M  END
>  <Name_Molregno>
498869

>  <DOPAMINE D3>
8.79

>  <DOPAMINE D4>
5.3

$$$$
498870
  Marvin  02231216192D 0   1.00000     0.00000     0

 30 33  0  0  1  0  0  0  0  0999 V2000
   11.5584    0.4572    0.0000 F   0  0  0  0  0  0  0  0  0
   10.8439    0.8697    0.0000 C   0  0  0  0  0  0  0  0  0
   10.1294    0.4572    0.0000 C   0  0  0  0  0  0  0  0  0
    9.4150    0.8697    0.0000 C   0  0  0  0  0  0  0  0  0
    8.6303    0.6148    0.0000 C   0  0  0  0  0  0  0  0  0
    8.1454    1.2822    0.0000 C   0  0  0  0  0  0  0  0  0
    8.6303    1.9496    0.0000 N   0  0  0  0  0  0  0  0  0
    9.4150    1.6947    0.0000 C   0  0  0  0  0  0  0  0  0
   10.1294    2.1072    0.0000 C   0  0  0  0  0  0  0  0  0
   10.8439    1.6947    0.0000 C   0  0  0  0  0  0  0  0  0
    7.3204    1.2822    0.0000 C   0  0  0  0  0  0  0  0  0
    6.9079    1.9967    0.0000 O   0  0  0  0  0  0  0  0  0
    6.9079    0.5677    0.0000 N   0  0  0  0  0  0  0  0  0
    6.0829    0.5677    0.0000 C   0  0  0  0  0  0  0  0  0
    5.6704   -0.1467    0.0000 C   0  0  0  0  0  0  0  0  0
    6.0829   -0.8612    0.0000 O   0  0  0  0  0  0  0  0  0
    4.8454   -0.1467    0.0000 N   0  0  0  0  0  0  0  0  0
    4.4329   -0.8612    0.0000 C   0  0  0  0  0  0  0  0  0
    3.6079   -0.8612    0.0000 C   0  0  0  0  0  0  0  0  0
    3.1954   -0.1467    0.0000 N   0  0  0  0  0  0  0  0  0
    3.6079    0.5677    0.0000 C   0  0  0  0  0  0  0  0  0
    4.4329    0.5677    0.0000 C   0  0  0  0  0  0  0  0  0
    2.3704   -0.1467    0.0000 C   0  0  0  0  0  0  0  0  0
    1.9579   -0.8612    0.0000 C   0  0  0  0  0  0  0  0  0
    1.1329   -0.8612    0.0000 C   0  0  0  0  0  0  0  0  0
    0.7204   -0.1467    0.0000 C   0  0  0  0  0  0  0  0  0
    1.1329    0.5677    0.0000 C   0  0  0  0  0  0  0  0  0
    1.9579    0.5677    0.0000 C   0  0  0  0  0  0  0  0  0
    2.3704    1.2822    0.0000 O   0  0  0  0  0  0  0  0  0
    1.9579    1.9967    0.0000 C   0  0  0  0  0  0  0  0  0
  1  2  1  0  0  0  0
  2  3  4  0  0  0  0
  2 10  4  0  0  0  0
  3  4  4  0  0  0  0
  4  5  4  0  0  0  0
  4  8  4  0  0  0  0
  5  6  4  0  0  0  0
  6  7  4  0  0  0  0
  6 11  1  0  0  0  0
  7  8  4  0  0  0  0
  8  9  4  0  0  0  0
  9 10  4  0  0  0  0
 11 12  2  0  0  0  0
 11 13  1  0  0  0  0
 13 14  1  0  0  0  0
 14 15  1  0  0  0  0
 15 16  1  0  0  0  0
 15 17  1  0  0  0  0
 17 18  1  0  0  0  0
 17 22  1  0  0  0  0
 18 19  1  0  0  0  0
 19 20  1  0  0  0  0
 20 21  1  0  0  0  0
 20 23  1  0  0  0  0
 21 22  1  0  0  0  0
 23 24  4  0  0  0  0
 23 28  4  0  0  0  0
 24 25  4  0  0  0  0
 25 26  4  0  0  0  0
 26 27  4  0  0  0  0
 27 28  4  0  0  0  0
 28 29  1  0  0  0  0
 29 30  1  0  0  0  0
M  STY  1   1 DAT
M  SAL   1  1   7
M  SDT   1 MRV_IMPLICIT_H                                        
M  SDD   1     0.0000    0.0000    DR    ALL  0       0  
M  SED   1 IMPL_H1
M  END
>  <Name_Molregno>
498870

>  <DOPAMINE D3>
8.62

>  <DOPAMINE D4>
6.01

$$$$
498871
  Marvin  02231216192D 0   1.00000     0.00000     0

 30 33  0  0  1  0  0  0  0  0999 V2000
   11.6517    0.2056    0.0000 I   0  0  0  0  0  0  0  0  0
   10.9373    0.6181    0.0000 C   0  0  0  0  0  0  0  0  0
   10.2228    0.2056    0.0000 C   0  0  0  0  0  0  0  0  0
    9.5083    0.6181    0.0000 C   0  0  0  0  0  0  0  0  0
    8.7237    0.3632    0.0000 C   0  0  0  0  0  0  0  0  0
    8.2388    1.0306    0.0000 C   0  0  0  0  0  0  0  0  0
    8.7237    1.6980    0.0000 N   0  0  0  0  0  0  0  0  0
    9.5083    1.4431    0.0000 C   0  0  0  0  0  0  0  0  0
   10.2228    1.8556    0.0000 C   0  0  0  0  0  0  0  0  0
   10.9373    1.4431    0.0000 C   0  0  0  0  0  0  0  0  0
    7.4138    1.0306    0.0000 C   0  0  0  0  0  0  0  0  0
    7.0013    1.7451    0.0000 O   0  0  0  0  0  0  0  0  0
    7.0013    0.3161    0.0000 N   0  0  0  0  0  0  0  0  0
    6.1763    0.3161    0.0000 C   0  0  0  0  0  0  0  0  0
    5.7638   -0.3983    0.0000 C   0  0  0  0  0  0  0  0  0
    6.1763   -1.1128    0.0000 O   0  0  0  0  0  0  0  0  0
    4.9388   -0.3983    0.0000 N   0  0  0  0  0  0  0  0  0
    4.5263   -1.1128    0.0000 C   0  0  0  0  0  0  0  0  0
    3.7013   -1.1128    0.0000 C   0  0  0  0  0  0  0  0  0
    3.2888   -0.3983    0.0000 N   0  0  0  0  0  0  0  0  0
    3.7013    0.3161    0.0000 C   0  0  0  0  0  0  0  0  0
    4.5263    0.3161    0.0000 C   0  0  0  0  0  0  0  0  0
    2.4638   -0.3983    0.0000 C   0  0  0  0  0  0  0  0  0
    2.0513   -1.1128    0.0000 C   0  0  0  0  0  0  0  0  0
    1.2263   -1.1128    0.0000 C   0  0  0  0  0  0  0  0  0
    0.8138   -0.3983    0.0000 C   0  0  0  0  0  0  0  0  0
    1.2263    0.3161    0.0000 C   0  0  0  0  0  0  0  0  0
    0.8138    1.0306    0.0000 Cl  0  0  0  0  0  0  0  0  0
    2.0513    0.3161    0.0000 C   0  0  0  0  0  0  0  0  0
    2.4638    1.0306    0.0000 Cl  0  0  0  0  0  0  0  0  0
  1  2  1  0  0  0  0
  2  3  4  0  0  0  0
  2 10  4  0  0  0  0
  3  4  4  0  0  0  0
  4  5  4  0  0  0  0
  4  8  4  0  0  0  0
  5  6  4  0  0  0  0
  6  7  4  0  0  0  0
  6 11  1  0  0  0  0
  7  8  4  0  0  0  0
  8  9  4  0  0  0  0
  9 10  4  0  0  0  0
 11 12  2  0  0  0  0
 11 13  1  0  0  0  0
 13 14  1  0  0  0  0
 14 15  1  0  0  0  0
 15 16  1  0  0  0  0
 15 17  1  0  0  0  0
 17 18  1  0  0  0  0
 17 22  1  0  0  0  0
 18 19  1  0  0  0  0
 19 20  1  0  0  0  0
 20 21  1  0  0  0  0
 20 23  1  0  0  0  0
 21 22  1  0  0  0  0
 23 24  4  0  0  0  0
 23 29  4  0  0  0  0
 24 25  4  0  0  0  0
 25 26  4  0  0  0  0
 26 27  4  0  0  0  0
 27 28  1  0  0  0  0
 27 29  4  0  0  0  0
 29 30  1  0  0  0  0
M  STY  1   1 DAT
M  SAL   1  1   7
M  SDT   1 MRV_IMPLICIT_H                                        
M  SDD   1     0.0000    0.0000    DR    ALL  0       0  
M  SED   1 IMPL_H1
M  END
>  <Name_Molregno>
498871

>  <DOPAMINE D3>
8.28

>  <DOPAMINE D4>
5

$$$$
498962
  Marvin  02231216192D 0   1.00000     0.00000     0

 29 31  0  0  0  0  0  0  0  0999 V2000
    4.6273    6.8992    0.0000 F   0  0  0  0  0  0  0  0  0
    4.6273    6.0742    0.0000 C   0  0  0  0  0  0  0  0  0
    5.3417    5.6617    0.0000 C   0  0  0  0  0  0  0  0  0
    5.3417    4.8367    0.0000 C   0  0  0  0  0  0  0  0  0
    4.6273    4.4242    0.0000 C   0  0  0  0  0  0  0  0  0
    3.9128    4.8367    0.0000 C   0  0  0  0  0  0  0  0  0
    3.9128    5.6617    0.0000 C   0  0  0  0  0  0  0  0  0
    4.6273    3.5992    0.0000 C   0  0  0  0  0  0  0  0  0
    5.3417    3.1867    0.0000 C   0  0  0  0  0  0  0  0  0
    5.3417    2.3617    0.0000 N   0  0  0  0  0  0  0  0  0
    6.0562    1.9492    0.0000 C   0  0  0  0  0  0  0  0  0
    6.0562    1.1242    0.0000 C   0  0  0  0  0  0  0  0  0
    5.3417    0.7117    0.0000 C   0  0  0  0  0  0  0  0  0
    4.6273    1.1242    0.0000 C   0  0  0  0  0  0  0  0  0
    4.6273    1.9492    0.0000 C   0  0  0  0  0  0  0  0  0
    5.3417   -0.1133    0.0000 C   0  0  0  0  0  0  0  0  0
    4.6273   -0.5258    0.0000 O   0  0  0  0  0  0  0  0  0
    6.0562   -0.5258    0.0000 C   0  0  0  0  0  0  0  0  0
    6.7707   -0.1133    0.0000 C   0  0  0  0  0  0  0  0  0
    7.4851   -0.5258    0.0000 C   0  0  0  0  0  0  0  0  0
    7.4851   -1.3508    0.0000 C   0  0  0  0  0  0  0  0  0
    6.7707   -1.7633    0.0000 C   0  0  0  0  0  0  0  0  0
    6.7707   -2.5883    0.0000 O   0  0  0  0  0  0  0  0  0
    7.4851   -3.0008    0.0000 C   0  0  0  0  0  0  0  0  0
    7.4851   -3.8258    0.0000 C   0  0  0  0  0  0  0  0  0
    8.1996   -4.2383    0.0000 F   0  0  0  0  0  0  0  0  0
    6.0562   -1.3508    0.0000 C   0  0  0  0  0  0  0  0  0
    5.3417   -1.7633    0.0000 O   0  0  0  0  0  0  0  0  0
    5.3417   -2.5883    0.0000 C   0  0  0  0  0  0  0  0  0
  1  2  1  0  0  0  0
  2  3  4  0  0  0  0
  2  7  4  0  0  0  0
  3  4  4  0  0  0  0
  4  5  4  0  0  0  0
  5  6  4  0  0  0  0
  5  8  1  0  0  0  0
  6  7  4  0  0  0  0
  8  9  1  0  0  0  0
  9 10  1  0  0  0  0
 10 11  1  0  0  0  0
 10 15  1  0  0  0  0
 11 12  1  0  0  0  0
 12 13  1  0  0  0  0
 13 14  1  0  0  0  0
 13 16  1  0  0  0  0
 14 15  1  0  0  0  0
 16 17  2  0  0  0  0
 16 18  1  0  0  0  0
 18 19  4  0  0  0  0
 18 27  4  0  0  0  0
 19 20  4  0  0  0  0
 20 21  4  0  0  0  0
 21 22  4  0  0  0  0
 22 23  1  0  0  0  0
 22 27  4  0  0  0  0
 23 24  1  0  0  0  0
 24 25  1  0  0  0  0
 25 26  1  0  0  0  0
 27 28  1  0  0  0  0
 28 29  1  0  0  0  0
M  END
>  <Name_Molregno>
498962

>  <5-HT1A>
5.77

>  <5-HT1B>
5.66

>  <5-HT1D>
6.15

>  <5-HT1E>
5

>  <5-HT2C>
6.89

>  <5-HT3>
5

>  <5-HT5>
5.8

>  <5-HT6>
5

>  <5-HT7>
6.68

>  <Alpha-1A>
6.84

>  <Alpha-1B>
6.26

>  <Alpha-2A>
6.06

>  <Alpha-2C>
6.48

>  <DOPAMINE D1>
5.85

>  <DOPAMINE D2>
5.42

>  <DOPAMINE D4>
6.76

>  <DOPAMINE D5>
5.13

>  <Dopamine transporter>
5

>  <HISTAMINE H1>
6.03

>  <HISTAMINE H2>
5.76

>  <HISTAMINE H3>
5

>  <Serotonin transporter>
5.51

$$$$
498964
  Marvin  02231216192D 0   1.00000     0.00000     0

 29 31  0  0  1  0  0  0  0  0999 V2000
    7.7806    5.8078    0.0000 F   0  0  0  0  0  0  0  0  0
    7.0662    5.3953    0.0000 C   0  0  0  0  0  0  0  0  0
    7.0662    4.5703    0.0000 C   0  0  0  0  0  0  0  0  0
    6.3517    4.1578    0.0000 O   0  0  0  0  0  0  0  0  0
    6.3517    3.3328    0.0000 C   0  0  0  0  0  0  0  0  0
    7.0662    2.9203    0.0000 C   0  0  0  0  0  0  0  0  0
    7.0662    2.0953    0.0000 C   0  0  0  0  0  0  0  0  0
    6.3517    1.6828    0.0000 C   0  0  0  0  0  0  0  0  0
    5.6372    2.0953    0.0000 C   0  0  0  0  0  0  0  0  0
    4.9227    1.6828    0.0000 C   0  0  0  0  0  0  0  0  0
    4.2083    2.0953    0.0000 O   0  0  0  0  0  0  0  0  0
    4.9227    0.8578    0.0000 C   0  0  0  0  0  0  0  0  0
    5.6372    0.4453    0.0000 C   0  0  0  0  0  0  0  0  0
    5.6372   -0.3797    0.0000 C   0  0  0  0  0  0  0  0  0
    4.9227   -0.7922    0.0000 N   0  0  0  0  0  0  0  0  0
    4.2083   -0.3797    0.0000 C   0  0  0  0  0  0  0  0  0
    4.2083    0.4453    0.0000 C   0  0  0  0  0  0  0  0  0
    4.9227   -1.6172    0.0000 C   0  0  0  0  0  0  0  0  0
    5.6372   -2.0297    0.0000 C   0  0  0  0  0  0  0  0  0
    5.6372   -2.8547    0.0000 C   0  0  0  0  0  0  0  0  0
    6.3517   -3.2672    0.0000 C   0  0  0  0  0  0  0  0  0
    6.3517   -4.0922    0.0000 C   0  0  0  0  0  0  0  0  0
    5.6372   -4.5047    0.0000 C   0  0  0  0  0  0  0  0  0
    4.9227   -4.0922    0.0000 C   0  0  0  0  0  0  0  0  0
    4.9227   -3.2672    0.0000 C   0  0  0  0  0  0  0  0  0
    5.6372   -5.3297    0.0000 C   0  0  0  0  0  0  0  0  0
    5.6372    2.9203    0.0000 C   0  0  0  0  0  0  0  0  0
    4.9227    3.3328    0.0000 O   0  0  0  0  0  0  0  0  0
    4.2083    2.9203    0.0000 C   0  0  0  0  0  0  0  0  0
  1  2  1  0  0  0  0
  2  3  1  0  0  0  0
  3  4  1  0  0  0  0
  4  5  1  0  0  0  0
  5  6  4  0  0  0  0
  5 27  4  0  0  0  0
  6  7  4  0  0  0  0
  7  8  4  0  0  0  0
  8  9  4  0  0  0  0
  9 10  1  0  0  0  0
  9 27  4  0  0  0  0
 10 11  1  0  0  0  0
 10 12  1  0  0  0  0
 12 13  1  0  0  0  0
 12 17  1  0  0  0  0
 13 14  1  0  0  0  0
 14 15  1  0  0  0  0
 15 16  1  0  0  0  0
 15 18  1  0  0  0  0
 16 17  1  0  0  0  0
 18 19  1  0  0  0  0
 19 20  1  0  0  0  0
 20 21  4  0  0  0  0
 20 25  4  0  0  0  0
 21 22  4  0  0  0  0
 22 23  4  0  0  0  0
 23 24  4  0  0  0  0
 23 26  1  0  0  0  0
 24 25  4  0  0  0  0
 27 28  1  0  0  0  0
 28 29  1  0  0  0  0
M  END
>  <Name_Molregno>
498964

>  <5-HT1A>
5

>  <5-HT1B>
5.31

>  <5-HT1D>
5.84

>  <5-HT1E>
5

>  <5-HT2C>
6.29

>  <5-HT3>
5

>  <5-HT5>
5

>  <5-HT6>
5

>  <5-HT7>
6.3

>  <Alpha-1B>
5

>  <Alpha-2A>
5

>  <Alpha-2C>
6.84

>  <DOPAMINE D1>
5.75

>  <DOPAMINE D2>
5

>  <DOPAMINE D4>
5.57

>  <Dopamine transporter>
5

>  <HISTAMINE H1>
6.36

>  <HISTAMINE H2>
5.94

>  <HISTAMINE H3>
5

>  <Serotonin transporter>
5.58

$$$$
498965
  Marvin  02231216192D 0   1.00000     0.00000     0

 30 33  0  0  1  0  0  0  0  0999 V2000
   11.5584    0.4572    0.0000 I   0  0  0  0  0  0  0  0  0
   10.8439    0.8697    0.0000 C   0  0  0  0  0  0  0  0  0
   10.1294    0.4572    0.0000 C   0  0  0  0  0  0  0  0  0
    9.4150    0.8697    0.0000 C   0  0  0  0  0  0  0  0  0
    8.6303    0.6148    0.0000 C   0  0  0  0  0  0  0  0  0
    8.1454    1.2822    0.0000 C   0  0  0  0  0  0  0  0  0
    8.6303    1.9496    0.0000 N   0  0  0  0  0  0  0  0  0
    9.4150    1.6947    0.0000 C   0  0  0  0  0  0  0  0  0
   10.1294    2.1072    0.0000 C   0  0  0  0  0  0  0  0  0
   10.8439    1.6947    0.0000 C   0  0  0  0  0  0  0  0  0
    7.3204    1.2822    0.0000 C   0  0  0  0  0  0  0  0  0
    6.9079    1.9967    0.0000 O   0  0  0  0  0  0  0  0  0
    6.9079    0.5677    0.0000 N   0  0  0  0  0  0  0  0  0
    6.0829    0.5677    0.0000 C   0  0  0  0  0  0  0  0  0
    5.6704   -0.1467    0.0000 C   0  0  0  0  0  0  0  0  0
    6.0829   -0.8612    0.0000 O   0  0  0  0  0  0  0  0  0
    4.8454   -0.1467    0.0000 N   0  0  0  0  0  0  0  0  0
    4.4329   -0.8612    0.0000 C   0  0  0  0  0  0  0  0  0
    3.6079   -0.8612    0.0000 C   0  0  0  0  0  0  0  0  0
    3.1954   -0.1467    0.0000 N   0  0  0  0  0  0  0  0  0
    3.6079    0.5677    0.0000 C   0  0  0  0  0  0  0  0  0
    4.4329    0.5677    0.0000 C   0  0  0  0  0  0  0  0  0
    2.3704   -0.1467    0.0000 C   0  0  0  0  0  0  0  0  0
    1.9579   -0.8612    0.0000 C   0  0  0  0  0  0  0  0  0
    1.1329   -0.8612    0.0000 C   0  0  0  0  0  0  0  0  0
    0.7204   -0.1467    0.0000 C   0  0  0  0  0  0  0  0  0
    1.1329    0.5677    0.0000 C   0  0  0  0  0  0  0  0  0
    1.9579    0.5677    0.0000 C   0  0  0  0  0  0  0  0  0
    2.3704    1.2822    0.0000 O   0  0  0  0  0  0  0  0  0
    1.9579    1.9967    0.0000 C   0  0  0  0  0  0  0  0  0
  1  2  1  0  0  0  0
  2  3  4  0  0  0  0
  2 10  4  0  0  0  0
  3  4  4  0  0  0  0
  4  5  4  0  0  0  0
  4  8  4  0  0  0  0
  5  6  4  0  0  0  0
  6  7  4  0  0  0  0
  6 11  1  0  0  0  0
  7  8  4  0  0  0  0
  8  9  4  0  0  0  0
  9 10  4  0  0  0  0
 11 12  2  0  0  0  0
 11 13  1  0  0  0  0
 13 14  1  0  0  0  0
 14 15  1  0  0  0  0
 15 16  1  0  0  0  0
 15 17  1  0  0  0  0
 17 18  1  0  0  0  0
 17 22  1  0  0  0  0
 18 19  1  0  0  0  0
 19 20  1  0  0  0  0
 20 21  1  0  0  0  0
 20 23  1  0  0  0  0
 21 22  1  0  0  0  0
 23 24  4  0  0  0  0
 23 28  4  0  0  0  0
 24 25  4  0  0  0  0
 25 26  4  0  0  0  0
 26 27  4  0  0  0  0
 27 28  4  0  0  0  0
 28 29  1  0  0  0  0
 29 30  1  0  0  0  0
M  STY  1   1 DAT
M  SAL   1  1   7
M  SDT   1 MRV_IMPLICIT_H                                        
M  SDD   1     0.0000    0.0000    DR    ALL  0       0  
M  SED   1 IMPL_H1
M  END
>  <Name_Molregno>
498965

>  <DOPAMINE D3>
8.44

>  <DOPAMINE D4>
6.34

$$$$
498966
  Marvin  02231216192D 0   1.00000     0.00000     0

 31 34  0  0  1  0  0  0  0  0999 V2000
   -7.6443    2.0188    0.0000 Cl  0  0  0  0  0  0  0  0  0
   -8.0568    1.3044    0.0000 C   0  0  0  0  0  0  0  0  0
   -7.6443    0.5899    0.0000 C   0  0  0  0  0  0  0  0  0
   -6.8193    0.5899    0.0000 N   0  0  0  0  0  0  0  0  0
   -6.4068    1.3044    0.0000 C   0  0  0  0  0  0  0  0  0
   -5.5818    1.3044    0.0000 C   0  0  0  0  0  0  0  0  0
   -5.1693    0.5899    0.0000 N   0  0  0  0  0  0  0  0  0
   -5.5818   -0.1246    0.0000 C   0  0  0  0  0  0  0  0  0
   -6.4068   -0.1246    0.0000 C   0  0  0  0  0  0  0  0  0
   -4.3443    0.5899    0.0000 C   0  0  0  0  0  0  0  0  0
   -3.9318    1.3044    0.0000 O   0  0  0  0  0  0  0  0  0
   -3.9318   -0.1246    0.0000 C   0  0  0  0  0  0  0  0  0
   -3.1068   -0.1246    0.0000 N   0  0  0  0  0  0  0  0  0
   -2.6943   -0.8390    0.0000 C   0  0  0  0  0  0  0  0  0
   -3.1068   -1.5535    0.0000 O   0  0  0  0  0  0  0  0  0
   -1.8693   -0.8390    0.0000 C   0  0  0  0  0  0  0  0  0
   -1.3844   -1.5065    0.0000 N   0  0  0  0  0  0  0  0  0
   -0.5997   -1.2515    0.0000 C   0  0  0  0  0  0  0  0  0
   -0.5997   -0.4265    0.0000 C   0  0  0  0  0  0  0  0  0
   -1.3844   -0.1716    0.0000 C   0  0  0  0  0  0  0  0  0
    0.1147   -0.0140    0.0000 C   0  0  0  0  0  0  0  0  0
    0.8292   -0.4265    0.0000 C   0  0  0  0  0  0  0  0  0
    1.5437   -0.0140    0.0000 O   0  0  0  0  0  0  0  0  0
    2.2581   -0.4265    0.0000 C   0  0  0  0  0  0  0  0  0
    0.8292   -1.2515    0.0000 C   0  0  0  0  0  0  0  0  0
    0.1147   -1.6640    0.0000 C   0  0  0  0  0  0  0  0  0
   -8.0568   -0.1246    0.0000 C   0  0  0  0  0  0  0  0  0
   -8.8818   -0.1246    0.0000 C   0  0  0  0  0  0  0  0  0
   -9.2943    0.5899    0.0000 C   0  0  0  0  0  0  0  0  0
   -8.8818    1.3044    0.0000 C   0  0  0  0  0  0  0  0  0
   -9.2943    2.0188    0.0000 Cl  0  0  0  0  0  0  0  0  0
  1  2  1  0  0  0  0
  2  3  4  0  0  0  0
  2 30  4  0  0  0  0
  3  4  1  0  0  0  0
  3 27  4  0  0  0  0
  4  5  1  0  0  0  0
  4  9  1  0  0  0  0
  5  6  1  0  0  0  0
  6  7  1  0  0  0  0
  7  8  1  0  0  0  0
  7 10  1  0  0  0  0
  8  9  1  0  0  0  0
 10 11  1  0  0  0  0
 10 12  1  0  0  0  0
 12 13  1  0  0  0  0
 13 14  1  0  0  0  0
 14 15  2  0  0  0  0
 14 16  1  0  0  0  0
 16 17  4  0  0  0  0
 16 20  4  0  0  0  0
 17 18  4  0  0  0  0
 18 19  4  0  0  0  0
 18 26  4  0  0  0  0
 19 20  4  0  0  0  0
 19 21  4  0  0  0  0
 21 22  4  0  0  0  0
 22 23  1  0  0  0  0
 22 25  4  0  0  0  0
 23 24  1  0  0  0  0
 25 26  4  0  0  0  0
 27 28  4  0  0  0  0
 28 29  4  0  0  0  0
 29 30  4  0  0  0  0
 30 31  1  0  0  0  0
M  STY  1   1 DAT
M  SAL   1  1  17
M  SDT   1 MRV_IMPLICIT_H                                        
M  SDD   1     0.0000    0.0000    DR    ALL  0       0  
M  SED   1 IMPL_H1
M  END
>  <Name_Molregno>
498966

>  <DOPAMINE D3>
8.92

>  <DOPAMINE D4>
5

$$$$
498967
  Marvin  02231216192D 0   1.00000     0.00000     0

 31 34  0  0  1  0  0  0  0  0999 V2000
   -7.7072   -2.0837    0.0000 O   0  0  0  0  0  0  0  0  0
   -8.1197   -2.7982    0.0000 C   0  0  0  0  0  0  0  0  0
   -8.1197   -1.3692    0.0000 C   0  0  0  0  0  0  0  0  0
   -8.9447   -1.3692    0.0000 C   0  0  0  0  0  0  0  0  0
   -9.3572   -0.6547    0.0000 C   0  0  0  0  0  0  0  0  0
   -8.9447    0.0597    0.0000 C   0  0  0  0  0  0  0  0  0
   -8.1197    0.0597    0.0000 C   0  0  0  0  0  0  0  0  0
   -7.7072   -0.6547    0.0000 C   0  0  0  0  0  0  0  0  0
   -6.8822   -0.6547    0.0000 N   0  0  0  0  0  0  0  0  0
   -6.4697    0.0597    0.0000 C   0  0  0  0  0  0  0  0  0
   -5.6447    0.0597    0.0000 C   0  0  0  0  0  0  0  0  0
   -5.2322   -0.6547    0.0000 N   0  0  0  0  0  0  0  0  0
   -5.6447   -1.3692    0.0000 C   0  0  0  0  0  0  0  0  0
   -6.4697   -1.3692    0.0000 C   0  0  0  0  0  0  0  0  0
   -4.4072   -0.6547    0.0000 C   0  0  0  0  0  0  0  0  0
   -3.9947   -1.3692    0.0000 O   0  0  0  0  0  0  0  0  0
   -3.9947    0.0597    0.0000 C   0  0  0  0  0  0  0  0  0
   -3.1697    0.0597    0.0000 N   0  0  0  0  0  0  0  0  0
   -2.7572    0.7742    0.0000 C   0  0  0  0  0  0  0  0  0
   -3.1697    1.4887    0.0000 O   0  0  0  0  0  0  0  0  0
   -1.9322    0.7742    0.0000 C   0  0  0  0  0  0  0  0  0
   -1.4472    0.1068    0.0000 N   0  0  0  0  0  0  0  0  0
   -0.6626    0.3617    0.0000 C   0  0  0  0  0  0  0  0  0
   -0.6626    1.1867    0.0000 C   0  0  0  0  0  0  0  0  0
   -1.4472    1.4416    0.0000 C   0  0  0  0  0  0  0  0  0
    0.0519    1.5992    0.0000 C   0  0  0  0  0  0  0  0  0
    0.7663    1.1867    0.0000 C   0  0  0  0  0  0  0  0  0
    1.4808    1.5992    0.0000 O   0  0  0  0  0  0  0  0  0
    2.1953    1.1867    0.0000 C   0  0  0  0  0  0  0  0  0
    0.7663    0.3617    0.0000 C   0  0  0  0  0  0  0  0  0
    0.0519   -0.0508    0.0000 C   0  0  0  0  0  0  0  0  0
  1  2  1  0  0  0  0
  1  3  1  0  0  0  0
  3  4  4  0  0  0  0
  3  8  4  0  0  0  0
  4  5  4  0  0  0  0
  5  6  4  0  0  0  0
  6  7  4  0  0  0  0
  7  8  4  0  0  0  0
  8  9  1  0  0  0  0
  9 10  1  0  0  0  0
  9 14  1  0  0  0  0
 10 11  1  0  0  0  0
 11 12  1  0  0  0  0
 12 13  1  0  0  0  0
 12 15  1  0  0  0  0
 13 14  1  0  0  0  0
 15 16  1  0  0  0  0
 15 17  1  0  0  0  0
 17 18  1  0  0  0  0
 18 19  1  0  0  0  0
 19 20  2  0  0  0  0
 19 21  1  0  0  0  0
 21 22  4  0  0  0  0
 21 25  4  0  0  0  0
 22 23  4  0  0  0  0
 23 24  4  0  0  0  0
 23 31  4  0  0  0  0
 24 25  4  0  0  0  0
 24 26  4  0  0  0  0
 26 27  4  0  0  0  0
 27 28  1  0  0  0  0
 27 30  4  0  0  0  0
 28 29  1  0  0  0  0
 30 31  4  0  0  0  0
M  STY  1   1 DAT
M  SAL   1  1  22
M  SDT   1 MRV_IMPLICIT_H                                        
M  SDD   1     0.0000    0.0000    DR    ALL  0       0  
M  SED   1 IMPL_H1
M  END
>  <Name_Molregno>
498967

>  <DOPAMINE D3>
8.63

>  <DOPAMINE D4>
5.82

$$$$
498968
  Marvin  02231216192D 0   1.00000     0.00000     0

 29 32  0  0  1  0  0  0  0  0999 V2000
   -6.8417    1.8761    0.0000 Cl  0  0  0  0  0  0  0  0  0
   -7.2542    1.1617    0.0000 C   0  0  0  0  0  0  0  0  0
   -6.8417    0.4472    0.0000 C   0  0  0  0  0  0  0  0  0
   -6.0167    0.4472    0.0000 N   0  0  0  0  0  0  0  0  0
   -5.6042    1.1617    0.0000 C   0  0  0  0  0  0  0  0  0
   -4.7792    1.1617    0.0000 C   0  0  0  0  0  0  0  0  0
   -4.3667    0.4472    0.0000 N   0  0  0  0  0  0  0  0  0
   -4.7792   -0.2673    0.0000 C   0  0  0  0  0  0  0  0  0
   -5.6042   -0.2673    0.0000 C   0  0  0  0  0  0  0  0  0
   -3.5417    0.4472    0.0000 C   0  0  0  0  0  0  0  0  0
   -3.1292    1.1617    0.0000 O   0  0  0  0  0  0  0  0  0
   -3.1292   -0.2673    0.0000 C   0  0  0  0  0  0  0  0  0
   -2.3042   -0.2673    0.0000 N   0  0  0  0  0  0  0  0  0
   -1.8917   -0.9818    0.0000 C   0  0  0  0  0  0  0  0  0
   -2.3042   -1.6962    0.0000 O   0  0  0  0  0  0  0  0  0
   -1.0667   -0.9818    0.0000 C   0  0  0  0  0  0  0  0  0
   -0.5818   -1.6492    0.0000 O   0  0  0  0  0  0  0  0  0
    0.2029   -1.3943    0.0000 C   0  0  0  0  0  0  0  0  0
    0.2029   -0.5693    0.0000 C   0  0  0  0  0  0  0  0  0
   -0.5818   -0.3143    0.0000 C   0  0  0  0  0  0  0  0  0
    0.9173   -0.1568    0.0000 C   0  0  0  0  0  0  0  0  0
    1.6318   -0.5693    0.0000 C   0  0  0  0  0  0  0  0  0
    1.6318   -1.3943    0.0000 C   0  0  0  0  0  0  0  0  0
    0.9173   -1.8068    0.0000 C   0  0  0  0  0  0  0  0  0
   -7.2542   -0.2673    0.0000 C   0  0  0  0  0  0  0  0  0
   -8.0792   -0.2673    0.0000 C   0  0  0  0  0  0  0  0  0
   -8.4917    0.4472    0.0000 C   0  0  0  0  0  0  0  0  0
   -8.0792    1.1617    0.0000 C   0  0  0  0  0  0  0  0  0
   -8.4917    1.8761    0.0000 Cl  0  0  0  0  0  0  0  0  0
  1  2  1  0  0  0  0
  2  3  4  0  0  0  0
  2 28  4  0  0  0  0
  3  4  1  0  0  0  0
  3 25  4  0  0  0  0
  4  5  1  0  0  0  0
  4  9  1  0  0  0  0
  5  6  1  0  0  0  0
  6  7  1  0  0  0  0
  7  8  1  0  0  0  0
  7 10  1  0  0  0  0
  8  9  1  0  0  0  0
 10 11  1  0  0  0  0
 10 12  1  0  0  0  0
 12 13  1  0  0  0  0
 13 14  1  0  0  0  0
 14 15  2  0  0  0  0
 14 16  1  0  0  0  0
 16 17  4  0  0  0  0
 16 20  4  0  0  0  0
 17 18  4  0  0  0  0
 18 19  4  0  0  0  0
 18 24  4  0  0  0  0
 19 20  4  0  0  0  0
 19 21  4  0  0  0  0
 21 22  4  0  0  0  0
 22 23  4  0  0  0  0
 23 24  4  0  0  0  0
 25 26  4  0  0  0  0
 26 27  4  0  0  0  0
 27 28  4  0  0  0  0
 28 29  1  0  0  0  0
M  END
>  <Name_Molregno>
498968

>  <DOPAMINE D3>
8.21

>  <DOPAMINE D4>
5

$$$$
499028
  Marvin  02231216192D 0   1.00000     0.00000     0

 29 31  0  0  0  0  0  0  0  0999 V2000
    7.7806    5.8078    0.0000 F   0  0  0  0  0  0  0  0  0
    7.0662    5.3953    0.0000 C   0  0  0  0  0  0  0  0  0
    7.0662    4.5703    0.0000 C   0  0  0  0  0  0  0  0  0
    6.3517    4.1578    0.0000 O   0  0  0  0  0  0  0  0  0
    6.3517    3.3328    0.0000 C   0  0  0  0  0  0  0  0  0
    7.0662    2.9203    0.0000 C   0  0  0  0  0  0  0  0  0
    7.0662    2.0953    0.0000 C   0  0  0  0  0  0  0  0  0
    6.3517    1.6828    0.0000 C   0  0  0  0  0  0  0  0  0
    5.6372    2.0953    0.0000 C   0  0  0  0  0  0  0  0  0
    4.9227    1.6828    0.0000 C   0  0  0  0  0  0  0  0  0
    4.2083    2.0953    0.0000 O   0  0  0  0  0  0  0  0  0
    4.9227    0.8578    0.0000 C   0  0  0  0  0  0  0  0  0
    5.6372    0.4453    0.0000 C   0  0  0  0  0  0  0  0  0
    5.6372   -0.3797    0.0000 C   0  0  0  0  0  0  0  0  0
    4.9227   -0.7922    0.0000 N   0  0  0  0  0  0  0  0  0
    4.2083   -0.3797    0.0000 C   0  0  0  0  0  0  0  0  0
    4.2083    0.4453    0.0000 C   0  0  0  0  0  0  0  0  0
    4.9227   -1.6172    0.0000 C   0  0  0  0  0  0  0  0  0
    5.6372   -2.0297    0.0000 C   0  0  0  0  0  0  0  0  0
    5.6372   -2.8547    0.0000 C   0  0  0  0  0  0  0  0  0
    6.3517   -3.2672    0.0000 C   0  0  0  0  0  0  0  0  0
    6.3517   -4.0922    0.0000 C   0  0  0  0  0  0  0  0  0
    5.6372   -4.5047    0.0000 C   0  0  0  0  0  0  0  0  0
    4.9227   -4.0922    0.0000 C   0  0  0  0  0  0  0  0  0
    4.9227   -3.2672    0.0000 C   0  0  0  0  0  0  0  0  0
    5.6372   -5.3297    0.0000 C   0  0  0  0  0  0  0  0  0
    5.6372    2.9203    0.0000 C   0  0  0  0  0  0  0  0  0
    4.9227    3.3328    0.0000 O   0  0  0  0  0  0  0  0  0
    4.2083    2.9203    0.0000 C   0  0  0  0  0  0  0  0  0
  1  2  1  0  0  0  0
  2  3  1  0  0  0  0
  3  4  1  0  0  0  0
  4  5  1  0  0  0  0
  5  6  4  0  0  0  0
  5 27  4  0  0  0  0
  6  7  4  0  0  0  0
  7  8  4  0  0  0  0
  8  9  4  0  0  0  0
  9 10  1  0  0  0  0
  9 27  4  0  0  0  0
 10 11  2  0  0  0  0
 10 12  1  0  0  0  0
 12 13  1  0  0  0  0
 12 17  1  0  0  0  0
 13 14  1  0  0  0  0
 14 15  1  0  0  0  0
 15 16  1  0  0  0  0
 15 18  1  0  0  0  0
 16 17  1  0  0  0  0
 18 19  1  0  0  0  0
 19 20  1  0  0  0  0
 20 21  4  0  0  0  0
 20 25  4  0  0  0  0
 21 22  4  0  0  0  0
 22 23  4  0  0  0  0
 23 24  4  0  0  0  0
 23 26  1  0  0  0  0
 24 25  4  0  0  0  0
 27 28  1  0  0  0  0
 28 29  1  0  0  0  0
M  END
>  <Name_Molregno>
499028

>  <5-HT1A>
5.73

>  <5-HT1B>
5.47

>  <5-HT1E>
5

>  <5-HT2C>
6.3

>  <5-HT3>
5

>  <5-HT5>
5.77

>  <5-HT6>
5

>  <5-HT7>
6.14

>  <Alpha-2C>
6.81

>  <DOPAMINE D1>
5.71

>  <DOPAMINE D2>
5

>  <DOPAMINE D4>
6.03

>  <HISTAMINE H1>
6.18

>  <HISTAMINE H2>
6.08

>  <HISTAMINE H3>
5.04

>  <Serotonin transporter>
6

$$$$
499032
  Marvin  02231216192D 0   1.00000     0.00000     0

 29 32  0  0  1  0  0  0  0  0999 V2000
    5.9534   -0.1941    0.0000 O   0  0  0  0  0  0  0  0  0
    6.7380    0.0609    0.0000 C   0  0  0  0  0  0  0  0  0
    6.7380    0.8859    0.0000 C   0  0  0  0  0  0  0  0  0
    5.9534    1.1408    0.0000 C   0  0  0  0  0  0  0  0  0
    5.4685    0.4734    0.0000 C   0  0  0  0  0  0  0  0  0
    4.6435    0.4734    0.0000 C   0  0  0  0  0  0  0  0  0
    4.2310    1.1879    0.0000 O   0  0  0  0  0  0  0  0  0
    4.2310   -0.2411    0.0000 N   0  0  0  0  0  0  0  0  0
    3.4060   -0.2411    0.0000 C   0  0  0  0  0  0  0  0  0
    2.9935   -0.9556    0.0000 C   0  0  0  0  0  0  0  0  0
    3.4060   -1.6700    0.0000 O   0  0  0  0  0  0  0  0  0
    2.1685   -0.9556    0.0000 N   0  0  0  0  0  0  0  0  0
    1.7560   -1.6700    0.0000 C   0  0  0  0  0  0  0  0  0
    0.9310   -1.6700    0.0000 C   0  0  0  0  0  0  0  0  0
    0.5185   -0.9556    0.0000 N   0  0  0  0  0  0  0  0  0
    0.9310   -0.2411    0.0000 C   0  0  0  0  0  0  0  0  0
    1.7560   -0.2411    0.0000 C   0  0  0  0  0  0  0  0  0
   -0.3065   -0.9556    0.0000 C   0  0  0  0  0  0  0  0  0
   -0.7190   -1.6700    0.0000 C   0  0  0  0  0  0  0  0  0
   -1.5440   -1.6700    0.0000 C   0  0  0  0  0  0  0  0  0
   -1.9565   -0.9556    0.0000 C   0  0  0  0  0  0  0  0  0
   -1.5440   -0.2411    0.0000 C   0  0  0  0  0  0  0  0  0
   -0.7190   -0.2411    0.0000 C   0  0  0  0  0  0  0  0  0
   -0.3065    0.4734    0.0000 O   0  0  0  0  0  0  0  0  0
   -0.7190    1.1879    0.0000 C   0  0  0  0  0  0  0  0  0
    7.4525    1.2984    0.0000 C   0  0  0  0  0  0  0  0  0
    8.1670    0.8859    0.0000 C   0  0  0  0  0  0  0  0  0
    8.1670    0.0609    0.0000 C   0  0  0  0  0  0  0  0  0
    7.4525   -0.3516    0.0000 C   0  0  0  0  0  0  0  0  0
  1  2  4  0  0  0  0
  1  5  4  0  0  0  0
  2  3  4  0  0  0  0
  2 29  4  0  0  0  0
  3  4  4  0  0  0  0
  3 26  4  0  0  0  0
  4  5  4  0  0  0  0
  5  6  1  0  0  0  0
  6  7  2  0  0  0  0
  6  8  1  0  0  0  0
  8  9  1  0  0  0  0
  9 10  1  0  0  0  0
 10 11  1  0  0  0  0
 10 12  1  0  0  0  0
 12 13  1  0  0  0  0
 12 17  1  0  0  0  0
 13 14  1  0  0  0  0
 14 15  1  0  0  0  0
 15 16  1  0  0  0  0
 15 18  1  0  0  0  0
 16 17  1  0  0  0  0
 18 19  4  0  0  0  0
 18 23  4  0  0  0  0
 19 20  4  0  0  0  0
 20 21  4  0  0  0  0
 21 22  4  0  0  0  0
 22 23  4  0  0  0  0
 23 24  1  0  0  0  0
 24 25  1  0  0  0  0
 26 27  4  0  0  0  0
 27 28  4  0  0  0  0
 28 29  4  0  0  0  0
M  END
>  <Name_Molregno>
499032

>  <DOPAMINE D3>
8.12

>  <DOPAMINE D4>
5.67

$$$$
499033
  Marvin  02231216192D 0   1.00000     0.00000     0

 30 33  0  0  1  0  0  0  0  0999 V2000
   11.6517    0.2056    0.0000 I   0  0  0  0  0  0  0  0  0
   10.9373    0.6181    0.0000 C   0  0  0  0  0  0  0  0  0
   10.2228    0.2056    0.0000 C   0  0  0  0  0  0  0  0  0
    9.5083    0.6181    0.0000 C   0  0  0  0  0  0  0  0  0
    8.7237    0.3632    0.0000 C   0  0  0  0  0  0  0  0  0
    8.2388    1.0306    0.0000 C   0  0  0  0  0  0  0  0  0
    8.7237    1.6980    0.0000 O   0  0  0  0  0  0  0  0  0
    9.5083    1.4431    0.0000 C   0  0  0  0  0  0  0  0  0
   10.2228    1.8556    0.0000 C   0  0  0  0  0  0  0  0  0
   10.9373    1.4431    0.0000 C   0  0  0  0  0  0  0  0  0
    7.4138    1.0306    0.0000 C   0  0  0  0  0  0  0  0  0
    7.0013    1.7451    0.0000 O   0  0  0  0  0  0  0  0  0
    7.0013    0.3161    0.0000 N   0  0  0  0  0  0  0  0  0
    6.1763    0.3161    0.0000 C   0  0  0  0  0  0  0  0  0
    5.7638   -0.3983    0.0000 C   0  0  0  0  0  0  0  0  0
    6.1763   -1.1128    0.0000 O   0  0  0  0  0  0  0  0  0
    4.9388   -0.3983    0.0000 N   0  0  0  0  0  0  0  0  0
    4.5263   -1.1128    0.0000 C   0  0  0  0  0  0  0  0  0
    3.7013   -1.1128    0.0000 C   0  0  0  0  0  0  0  0  0
    3.2888   -0.3983    0.0000 N   0  0  0  0  0  0  0  0  0
    3.7013    0.3161    0.0000 C   0  0  0  0  0  0  0  0  0
    4.5263    0.3161    0.0000 C   0  0  0  0  0  0  0  0  0
    2.4638   -0.3983    0.0000 C   0  0  0  0  0  0  0  0  0
    2.0513   -1.1128    0.0000 C   0  0  0  0  0  0  0  0  0
    1.2263   -1.1128    0.0000 C   0  0  0  0  0  0  0  0  0
    0.8138   -0.3983    0.0000 C   0  0  0  0  0  0  0  0  0
    1.2263    0.3161    0.0000 C   0  0  0  0  0  0  0  0  0
    0.8138    1.0306    0.0000 Cl  0  0  0  0  0  0  0  0  0
    2.0513    0.3161    0.0000 C   0  0  0  0  0  0  0  0  0
    2.4638    1.0306    0.0000 Cl  0  0  0  0  0  0  0  0  0
  1  2  1  0  0  0  0
  2  3  4  0  0  0  0
  2 10  4  0  0  0  0
  3  4  4  0  0  0  0
  4  5  4  0  0  0  0
  4  8  4  0  0  0  0
  5  6  4  0  0  0  0
  6  7  4  0  0  0  0
  6 11  1  0  0  0  0
  7  8  4  0  0  0  0
  8  9  4  0  0  0  0
  9 10  4  0  0  0  0
 11 12  2  0  0  0  0
 11 13  1  0  0  0  0
 13 14  1  0  0  0  0
 14 15  1  0  0  0  0
 15 16  1  0  0  0  0
 15 17  1  0  0  0  0
 17 18  1  0  0  0  0
 17 22  1  0  0  0  0
 18 19  1  0  0  0  0
 19 20  1  0  0  0  0
 20 21  1  0  0  0  0
 20 23  1  0  0  0  0
 21 22  1  0  0  0  0
 23 24  4  0  0  0  0
 23 29  4  0  0  0  0
 24 25  4  0  0  0  0
 25 26  4  0  0  0  0
 26 27  4  0  0  0  0
 27 28  1  0  0  0  0
 27 29  4  0  0  0  0
 29 30  1  0  0  0  0
M  END
>  <Name_Molregno>
499033

>  <DOPAMINE D3>
8.11

>  <DOPAMINE D4>
5

$$$$
499034
  Marvin  02231216192D 0   1.00000     0.00000     0

 30 33  0  0  1  0  0  0  0  0999 V2000
   11.5584    0.4572    0.0000 I   0  0  0  0  0  0  0  0  0
   10.8439    0.8697    0.0000 C   0  0  0  0  0  0  0  0  0
   10.1294    0.4572    0.0000 C   0  0  0  0  0  0  0  0  0
    9.4150    0.8697    0.0000 C   0  0  0  0  0  0  0  0  0
    8.6303    0.6148    0.0000 C   0  0  0  0  0  0  0  0  0
    8.1454    1.2822    0.0000 C   0  0  0  0  0  0  0  0  0
    8.6303    1.9496    0.0000 O   0  0  0  0  0  0  0  0  0
    9.4150    1.6947    0.0000 C   0  0  0  0  0  0  0  0  0
   10.1294    2.1072    0.0000 C   0  0  0  0  0  0  0  0  0
   10.8439    1.6947    0.0000 C   0  0  0  0  0  0  0  0  0
    7.3204    1.2822    0.0000 C   0  0  0  0  0  0  0  0  0
    6.9079    1.9967    0.0000 O   0  0  0  0  0  0  0  0  0
    6.9079    0.5677    0.0000 N   0  0  0  0  0  0  0  0  0
    6.0829    0.5677    0.0000 C   0  0  0  0  0  0  0  0  0
    5.6704   -0.1467    0.0000 C   0  0  0  0  0  0  0  0  0
    6.0829   -0.8612    0.0000 O   0  0  0  0  0  0  0  0  0
    4.8454   -0.1467    0.0000 N   0  0  0  0  0  0  0  0  0
    4.4329   -0.8612    0.0000 C   0  0  0  0  0  0  0  0  0
    3.6079   -0.8612    0.0000 C   0  0  0  0  0  0  0  0  0
    3.1954   -0.1467    0.0000 N   0  0  0  0  0  0  0  0  0
    3.6079    0.5677    0.0000 C   0  0  0  0  0  0  0  0  0
    4.4329    0.5677    0.0000 C   0  0  0  0  0  0  0  0  0
    2.3704   -0.1467    0.0000 C   0  0  0  0  0  0  0  0  0
    1.9579   -0.8612    0.0000 C   0  0  0  0  0  0  0  0  0
    1.1329   -0.8612    0.0000 C   0  0  0  0  0  0  0  0  0
    0.7204   -0.1467    0.0000 C   0  0  0  0  0  0  0  0  0
    1.1329    0.5677    0.0000 C   0  0  0  0  0  0  0  0  0
    1.9579    0.5677    0.0000 C   0  0  0  0  0  0  0  0  0
    2.3704    1.2822    0.0000 O   0  0  0  0  0  0  0  0  0
    1.9579    1.9967    0.0000 C   0  0  0  0  0  0  0  0  0
  1  2  1  0  0  0  0
  2  3  4  0  0  0  0
  2 10  4  0  0  0  0
  3  4  4  0  0  0  0
  4  5  4  0  0  0  0
  4  8  4  0  0  0  0
  5  6  4  0  0  0  0
  6  7  4  0  0  0  0
  6 11  1  0  0  0  0
  7  8  4  0  0  0  0
  8  9  4  0  0  0  0
  9 10  4  0  0  0  0
 11 12  2  0  0  0  0
 11 13  1  0  0  0  0
 13 14  1  0  0  0  0
 14 15  1  0  0  0  0
 15 16  1  0  0  0  0
 15 17  1  0  0  0  0
 17 18  1  0  0  0  0
 17 22  1  0  0  0  0
 18 19  1  0  0  0  0
 19 20  1  0  0  0  0
 20 21  1  0  0  0  0
 20 23  1  0  0  0  0
 21 22  1  0  0  0  0
 23 24  4  0  0  0  0
 23 28  4  0  0  0  0
 24 25  4  0  0  0  0
 25 26  4  0  0  0  0
 26 27  4  0  0  0  0
 27 28  4  0  0  0  0
 28 29  1  0  0  0  0
 29 30  1  0  0  0  0
M  END
>  <Name_Molregno>
499034

>  <DOPAMINE D3>
8.12

>  <DOPAMINE D4>
5.89

$$$$
499097
  Marvin  02231216192D 0   1.00000     0.00000     0

 29 32  0  0  1  0  0  0  0  0999 V2000
   -6.8520    1.8873    0.0000 Cl  0  0  0  0  0  0  0  0  0
   -7.2645    1.1729    0.0000 C   0  0  0  0  0  0  0  0  0
   -6.8520    0.4584    0.0000 C   0  0  0  0  0  0  0  0  0
   -6.0270    0.4584    0.0000 N   0  0  0  0  0  0  0  0  0
   -5.6145    1.1729    0.0000 C   0  0  0  0  0  0  0  0  0
   -4.7895    1.1729    0.0000 C   0  0  0  0  0  0  0  0  0
   -4.3770    0.4584    0.0000 N   0  0  0  0  0  0  0  0  0
   -4.7895   -0.2561    0.0000 C   0  0  0  0  0  0  0  0  0
   -5.6145   -0.2561    0.0000 C   0  0  0  0  0  0  0  0  0
   -3.5520    0.4584    0.0000 C   0  0  0  0  0  0  0  0  0
   -3.1395   -0.2561    0.0000 C   0  0  0  0  0  0  0  0  0
   -3.5520   -0.9705    0.0000 O   0  0  0  0  0  0  0  0  0
   -2.3145   -0.2561    0.0000 N   0  0  0  0  0  0  0  0  0
   -1.9020   -0.9705    0.0000 C   0  0  0  0  0  0  0  0  0
   -2.3145   -1.6850    0.0000 O   0  0  0  0  0  0  0  0  0
   -1.0770   -0.9705    0.0000 C   0  0  0  0  0  0  0  0  0
   -0.5921   -1.6380    0.0000 N   0  0  0  0  0  0  0  0  0
    0.1925   -1.3830    0.0000 C   0  0  0  0  0  0  0  0  0
    0.1925   -0.5580    0.0000 C   0  0  0  0  0  0  0  0  0
   -0.5921   -0.3031    0.0000 C   0  0  0  0  0  0  0  0  0
    0.9070   -0.1455    0.0000 C   0  0  0  0  0  0  0  0  0
    1.6215   -0.5580    0.0000 C   0  0  0  0  0  0  0  0  0
    1.6215   -1.3830    0.0000 C   0  0  0  0  0  0  0  0  0
    0.9070   -1.7955    0.0000 C   0  0  0  0  0  0  0  0  0
   -7.2645   -0.2561    0.0000 C   0  0  0  0  0  0  0  0  0
   -8.0895   -0.2561    0.0000 C   0  0  0  0  0  0  0  0  0
   -8.5020    0.4584    0.0000 C   0  0  0  0  0  0  0  0  0
   -8.0895    1.1729    0.0000 C   0  0  0  0  0  0  0  0  0
   -8.5020    1.8873    0.0000 Cl  0  0  0  0  0  0  0  0  0
  1  2  1  0  0  0  0
  2  3  4  0  0  0  0
  2 28  4  0  0  0  0
  3  4  1  0  0  0  0
  3 25  4  0  0  0  0
  4  5  1  0  0  0  0
  4  9  1  0  0  0  0
  5  6  1  0  0  0  0
  6  7  1  0  0  0  0
  7  8  1  0  0  0  0
  7 10  1  0  0  0  0
  8  9  1  0  0  0  0
 10 11  1  0  0  0  0
 11 12  1  0  0  0  0
 11 13  1  0  0  0  0
 13 14  1  0  0  0  0
 14 15  2  0  0  0  0
 14 16  1  0  0  0  0
 16 17  4  0  0  0  0
 16 20  4  0  0  0  0
 17 18  4  0  0  0  0
 18 19  4  0  0  0  0
 18 24  4  0  0  0  0
 19 20  4  0  0  0  0
 19 21  4  0  0  0  0
 21 22  4  0  0  0  0
 22 23  4  0  0  0  0
 23 24  4  0  0  0  0
 25 26  4  0  0  0  0
 26 27  4  0  0  0  0
 27 28  4  0  0  0  0
 28 29  1  0  0  0  0
M  STY  1   1 DAT
M  SAL   1  1  17
M  SDT   1 MRV_IMPLICIT_H                                        
M  SDD   1     0.0000    0.0000    DR    ALL  0       0  
M  SED   1 IMPL_H1
M  END
>  <Name_Molregno>
499097

>  <DOPAMINE D3>
9.59

>  <DOPAMINE D4>
5.98

$$$$
499098
  Marvin  02231216192D 0   1.00000     0.00000     0

 29 32  0  0  1  0  0  0  0  0999 V2000
    0.4541   -1.8798    0.0000 O   0  0  0  0  0  0  0  0  0
    0.0416   -2.5943    0.0000 C   0  0  0  0  0  0  0  0  0
    0.0416   -1.1653    0.0000 C   0  0  0  0  0  0  0  0  0
   -0.7834   -1.1653    0.0000 C   0  0  0  0  0  0  0  0  0
   -1.1959   -0.4508    0.0000 C   0  0  0  0  0  0  0  0  0
   -0.7834    0.2636    0.0000 C   0  0  0  0  0  0  0  0  0
    0.0416    0.2636    0.0000 C   0  0  0  0  0  0  0  0  0
    0.4541   -0.4508    0.0000 C   0  0  0  0  0  0  0  0  0
    1.2791   -0.4508    0.0000 N   0  0  0  0  0  0  0  0  0
    1.6916    0.2636    0.0000 C   0  0  0  0  0  0  0  0  0
    2.5166    0.2636    0.0000 C   0  0  0  0  0  0  0  0  0
    2.9291   -0.4508    0.0000 N   0  0  0  0  0  0  0  0  0
    2.5166   -1.1653    0.0000 C   0  0  0  0  0  0  0  0  0
    1.6916   -1.1653    0.0000 C   0  0  0  0  0  0  0  0  0
    3.7541   -0.4508    0.0000 C   0  0  0  0  0  0  0  0  0
    4.1666    0.2636    0.0000 C   0  0  0  0  0  0  0  0  0
    3.7541    0.9781    0.0000 O   0  0  0  0  0  0  0  0  0
    4.9916    0.2636    0.0000 N   0  0  0  0  0  0  0  0  0
    5.4041    0.9781    0.0000 C   0  0  0  0  0  0  0  0  0
    4.9916    1.6926    0.0000 O   0  0  0  0  0  0  0  0  0
    6.2291    0.9781    0.0000 C   0  0  0  0  0  0  0  0  0
    6.7140    0.3107    0.0000 N   0  0  0  0  0  0  0  0  0
    7.4986    0.5656    0.0000 C   0  0  0  0  0  0  0  0  0
    7.4986    1.3906    0.0000 C   0  0  0  0  0  0  0  0  0
    6.7140    1.6455    0.0000 C   0  0  0  0  0  0  0  0  0
    8.2131    1.8031    0.0000 C   0  0  0  0  0  0  0  0  0
    8.9276    1.3906    0.0000 C   0  0  0  0  0  0  0  0  0
    8.9276    0.5656    0.0000 C   0  0  0  0  0  0  0  0  0
    8.2131    0.1531    0.0000 C   0  0  0  0  0  0  0  0  0
  1  2  1  0  0  0  0
  1  3  1  0  0  0  0
  3  4  4  0  0  0  0
  3  8  4  0  0  0  0
  4  5  4  0  0  0  0
  5  6  4  0  0  0  0
  6  7  4  0  0  0  0
  7  8  4  0  0  0  0
  8  9  1  0  0  0  0
  9 10  1  0  0  0  0
  9 14  1  0  0  0  0
 10 11  1  0  0  0  0
 11 12  1  0  0  0  0
 12 13  1  0  0  0  0
 12 15  1  0  0  0  0
 13 14  1  0  0  0  0
 15 16  1  0  0  0  0
 16 17  1  0  0  0  0
 16 18  1  0  0  0  0
 18 19  1  0  0  0  0
 19 20  2  0  0  0  0
 19 21  1  0  0  0  0
 21 22  4  0  0  0  0
 21 25  4  0  0  0  0
 22 23  4  0  0  0  0
 23 24  4  0  0  0  0
 23 29  4  0  0  0  0
 24 25  4  0  0  0  0
 24 26  4  0  0  0  0
 26 27  4  0  0  0  0
 27 28  4  0  0  0  0
 28 29  4  0  0  0  0
M  STY  1   1 DAT
M  SAL   1  1  22
M  SDT   1 MRV_IMPLICIT_H                                        
M  SDD   1     0.0000    0.0000    DR    ALL  0       0  
M  SED   1 IMPL_H1
M  END
>  <Name_Molregno>
499098

>  <DOPAMINE D3>
9.29

>  <DOPAMINE D4>
6.75

$$$$
499671
  Marvin  02231216192D 0   1.00000     0.00000     0

 28 31  0  0  0  0  0  0  0  0999 V2000
   -6.8294    1.8775    0.0000 Cl  0  0  0  0  0  0  0  0  0
   -7.2419    1.1630    0.0000 C   0  0  0  0  0  0  0  0  0
   -6.8294    0.4485    0.0000 C   0  0  0  0  0  0  0  0  0
   -6.0044    0.4485    0.0000 N   0  0  0  0  0  0  0  0  0
   -5.5919    1.1630    0.0000 C   0  0  0  0  0  0  0  0  0
   -4.7669    1.1630    0.0000 C   0  0  0  0  0  0  0  0  0
   -4.3544    0.4485    0.0000 N   0  0  0  0  0  0  0  0  0
   -4.7669   -0.2660    0.0000 C   0  0  0  0  0  0  0  0  0
   -5.5919   -0.2660    0.0000 C   0  0  0  0  0  0  0  0  0
   -3.5294    0.4485    0.0000 C   0  0  0  0  0  0  0  0  0
   -3.1169   -0.2660    0.0000 C   0  0  0  0  0  0  0  0  0
   -2.2919   -0.2660    0.0000 N   0  0  0  0  0  0  0  0  0
   -1.8794   -0.9804    0.0000 C   0  0  0  0  0  0  0  0  0
   -2.2919   -1.6949    0.0000 O   0  0  0  0  0  0  0  0  0
   -1.0544   -0.9804    0.0000 C   0  0  0  0  0  0  0  0  0
   -0.5695   -1.6479    0.0000 N   0  0  0  0  0  0  0  0  0
    0.2151   -1.3929    0.0000 C   0  0  0  0  0  0  0  0  0
    0.2151   -0.5679    0.0000 C   0  0  0  0  0  0  0  0  0
   -0.5695   -0.3130    0.0000 C   0  0  0  0  0  0  0  0  0
    0.9296   -0.1554    0.0000 C   0  0  0  0  0  0  0  0  0
    1.6440   -0.5679    0.0000 C   0  0  0  0  0  0  0  0  0
    1.6440   -1.3929    0.0000 C   0  0  0  0  0  0  0  0  0
    0.9296   -1.8054    0.0000 C   0  0  0  0  0  0  0  0  0
   -7.2419   -0.2660    0.0000 C   0  0  0  0  0  0  0  0  0
   -8.0669   -0.2660    0.0000 C   0  0  0  0  0  0  0  0  0
   -8.4794    0.4485    0.0000 C   0  0  0  0  0  0  0  0  0
   -8.0669    1.1630    0.0000 C   0  0  0  0  0  0  0  0  0
   -8.4794    1.8775    0.0000 Cl  0  0  0  0  0  0  0  0  0
  1  2  1  0  0  0  0
  2  3  4  0  0  0  0
  2 27  4  0  0  0  0
  3  4  1  0  0  0  0
  3 24  4  0  0  0  0
  4  5  1  0  0  0  0
  4  9  1  0  0  0  0
  5  6  1  0  0  0  0
  6  7  1  0  0  0  0
  7  8  1  0  0  0  0
  7 10  1  0  0  0  0
  8  9  1  0  0  0  0
 10 11  2  0  0  0  0
 11 12  1  0  0  0  0
 12 13  1  0  0  0  0
 13 14  2  0  0  0  0
 13 15  1  0  0  0  0
 15 16  4  0  0  0  0
 15 19  4  0  0  0  0
 16 17  4  0  0  0  0
 17 18  4  0  0  0  0
 17 23  4  0  0  0  0
 18 19  4  0  0  0  0
 18 20  4  0  0  0  0
 20 21  4  0  0  0  0
 21 22  4  0  0  0  0
 22 23  4  0  0  0  0
 24 25  4  0  0  0  0
 25 26  4  0  0  0  0
 26 27  4  0  0  0  0
 27 28  1  0  0  0  0
M  STY  1   1 DAT
M  SAL   1  1  16
M  SDT   1 MRV_IMPLICIT_H                                        
M  SDD   1     0.0000    0.0000    DR    ALL  0       0  
M  SED   1 IMPL_H1
M  END
>  <Name_Molregno>
499671

>  <DOPAMINE D3>
9.36

>  <DOPAMINE D4>
6.19

$$$$
499672
  Marvin  02231216192D 0   1.00000     0.00000     0

 28 31  0  0  0  0  0  0  0  0999 V2000
   -6.8294    1.8775    0.0000 Cl  0  0  0  0  0  0  0  0  0
   -7.2419    1.1630    0.0000 C   0  0  0  0  0  0  0  0  0
   -6.8294    0.4485    0.0000 C   0  0  0  0  0  0  0  0  0
   -6.0044    0.4485    0.0000 N   0  0  0  0  0  0  0  0  0
   -5.5919    1.1630    0.0000 C   0  0  0  0  0  0  0  0  0
   -4.7669    1.1630    0.0000 C   0  0  0  0  0  0  0  0  0
   -4.3544    0.4485    0.0000 N   0  0  0  0  0  0  0  0  0
   -4.7669   -0.2660    0.0000 C   0  0  0  0  0  0  0  0  0
   -5.5919   -0.2660    0.0000 C   0  0  0  0  0  0  0  0  0
   -3.5294    0.4485    0.0000 C   0  0  0  0  0  0  0  0  0
   -3.1169   -0.2660    0.0000 C   0  0  0  0  0  0  0  0  0
   -2.2919   -0.2660    0.0000 N   0  0  0  0  0  0  0  0  0
   -1.8794   -0.9804    0.0000 C   0  0  0  0  0  0  0  0  0
   -2.2919   -1.6949    0.0000 O   0  0  0  0  0  0  0  0  0
   -1.0544   -0.9804    0.0000 C   0  0  0  0  0  0  0  0  0
   -0.5695   -1.6479    0.0000 O   0  0  0  0  0  0  0  0  0
    0.2151   -1.3929    0.0000 C   0  0  0  0  0  0  0  0  0
    0.2151   -0.5679    0.0000 C   0  0  0  0  0  0  0  0  0
   -0.5695   -0.3130    0.0000 C   0  0  0  0  0  0  0  0  0
    0.9296   -0.1554    0.0000 C   0  0  0  0  0  0  0  0  0
    1.6440   -0.5679    0.0000 C   0  0  0  0  0  0  0  0  0
    1.6440   -1.3929    0.0000 C   0  0  0  0  0  0  0  0  0
    0.9296   -1.8054    0.0000 C   0  0  0  0  0  0  0  0  0
   -7.2419   -0.2660    0.0000 C   0  0  0  0  0  0  0  0  0
   -8.0669   -0.2660    0.0000 C   0  0  0  0  0  0  0  0  0
   -8.4794    0.4485    0.0000 C   0  0  0  0  0  0  0  0  0
   -8.0669    1.1630    0.0000 C   0  0  0  0  0  0  0  0  0
   -8.4794    1.8775    0.0000 Cl  0  0  0  0  0  0  0  0  0
  1  2  1  0  0  0  0
  2  3  4  0  0  0  0
  2 27  4  0  0  0  0
  3  4  1  0  0  0  0
  3 24  4  0  0  0  0
  4  5  1  0  0  0  0
  4  9  1  0  0  0  0
  5  6  1  0  0  0  0
  6  7  1  0  0  0  0
  7  8  1  0  0  0  0
  7 10  1  0  0  0  0
  8  9  1  0  0  0  0
 10 11  2  0  0  0  0
 11 12  1  0  0  0  0
 12 13  1  0  0  0  0
 13 14  2  0  0  0  0
 13 15  1  0  0  0  0
 15 16  4  0  0  0  0
 15 19  4  0  0  0  0
 16 17  4  0  0  0  0
 17 18  4  0  0  0  0
 17 23  4  0  0  0  0
 18 19  4  0  0  0  0
 18 20  4  0  0  0  0
 20 21  4  0  0  0  0
 21 22  4  0  0  0  0
 22 23  4  0  0  0  0
 24 25  4  0  0  0  0
 25 26  4  0  0  0  0
 26 27  4  0  0  0  0
 27 28  1  0  0  0  0
M  END
>  <Name_Molregno>
499672

>  <DOPAMINE D3>
8.68

>  <DOPAMINE D4>
5.97

$$$$
513010
  Marvin  02231216192D 0   1.00000     0.00000     0

 22 24  0  0  1  0  0  0  0  0999 V2000
   -0.2296   -0.4433    0.0000 O   0  0  0  0  0  0  0  0  0
    0.5954   -0.4441    0.0000 C   0  0  0  0  0  0  0  0  0
    1.0086    0.2700    0.0000 O   0  0  0  0  0  0  0  0  0
    1.0072   -1.1590    0.0000 C   0  0  0  0  0  0  0  0  0
    1.8322   -1.1598    0.0000 C   0  0  0  0  0  0  0  0  0
    2.2440   -1.8747    0.0000 C   0  0  0  0  0  0  0  0  0
    1.8308   -2.5887    0.0000 C   0  0  0  0  0  0  0  0  0
    1.0058   -2.5879    0.0000 C   0  0  0  0  0  0  0  0  0
    0.5940   -1.8730    0.0000 C   0  0  0  0  0  0  0  0  0
   -0.6414    0.2716    0.0000 C   0  0  0  0  0  0  0  0  0
   -0.7796    1.0890    0.0000 C   0  0  0  0  0  0  0  0  0
   -1.7084    1.0735    0.0000 C   0  0  0  0  0  0  0  0  0
   -2.2690    1.5134    0.0000 N   0  0  0  0  0  0  0  0  0
   -2.1293    0.7003    0.0000 C   0  0  0  0  0  0  0  0  0
   -2.6492   -0.0120    0.0000 C   0  0  0  0  0  0  0  0  0
   -2.0289    0.3649    0.0000 C   0  0  0  0  0  0  0  0  0
   -1.1576    0.7003    0.0000 C   0  0  0  0  0  0  0  0  0
   -1.4378   -0.0757    0.0000 C   0  0  0  0  0  0  0  0  0
   -2.2499   -0.2210    0.0000 O   0  0  0  0  0  0  0  0  0
   -2.5301   -0.9969    0.0000 C   0  0  0  0  0  0  0  0  0
   -0.9059   -0.7063    0.0000 O   0  0  0  0  0  0  0  0  0
   -2.6916    2.2219    0.0000 C   0  0  0  0  0  0  0  0  0
  1  2  1  0  0  0  0
  1 10  1  0  0  0  0
  2  3  2  0  0  0  0
  2  4  1  0  0  0  0
  4  5  4  0  0  0  0
  4  9  4  0  0  0  0
  5  6  4  0  0  0  0
  6  7  4  0  0  0  0
  7  8  4  0  0  0  0
  8  9  4  0  0  0  0
 10 11  1  0  0  0  0
 10 17  1  0  0  0  0
 11 12  1  0  0  0  0
 12 13  1  0  0  0  0
 12 16  1  0  0  0  0
 13 14  1  0  0  0  0
 13 22  1  0  0  0  0
 14 15  1  0  0  0  0
 14 17  1  0  0  0  0
 15 16  1  0  0  0  0
 17 18  1  0  0  0  0
 18 19  1  0  0  0  0
 18 21  2  0  0  0  0
 19 20  1  0  0  0  0
M  END
>  <Name_Molregno>
513010

>  <5-HT1A>
5

>  <5-HT1B>
5.47

>  <5-HT1D>
5

>  <5-HT1E>
5

>  <5-HT3>
5.31

>  <5-HT5>
5

>  <5-HT6>
5

>  <5-HT7>
5

>  <Alpha-1A>
5.68

>  <Alpha-1B>
5

>  <Alpha-2A>
5

>  <Alpha-2C>
5

>  <Beta-1>
5

>  <Beta-2>
5

>  <DOPAMINE D1>
5

>  <DOPAMINE D2>
5

>  <DOPAMINE D4>
5

>  <DOPAMINE D5>
5

>  <Dopamine transporter>
6.67

>  <HISTAMINE H1>
5.67

>  <HISTAMINE H2>
5

>  <HISTAMINE H4>
5

>  <Muscarinic acetylcholine receptor M1>
5

>  <Muscarinic acetylcholine receptor M2>
5

>  <Muscarinic acetylcholine receptor M3>
5

>  <Muscarinic acetylcholine receptor M4>
5

>  <Muscarinic acetylcholine receptor M5>
5

>  <Norepinephrine transporter>
5.76

>  <Serotonin transporter>
6.68

$$$$
514265
  Marvin  02231216192D 0   1.00000     0.00000     0

 37 40  0  0  1  0  0  0  0  0999 V2000
   -5.5831   -2.7371    0.0000 O   0  0  0  0  0  0  0  0  0
   -5.7812   -1.9363    0.0000 C   0  0  0  0  0  0  0  0  0
   -5.1867   -1.3642    0.0000 N   0  0  0  0  0  0  0  0  0
   -4.3941   -1.5930    0.0000 C   0  0  0  0  0  0  0  0  0
   -3.7996   -1.0210    0.0000 C   0  0  0  0  0  0  0  0  0
   -3.0070   -1.2498    0.0000 C   0  0  0  0  0  0  0  0  0
   -2.4125   -0.6778    0.0000 C   0  0  0  0  0  0  0  0  0
   -1.6199   -0.9066    0.0000 N   0  0  0  0  0  0  0  0  0
   -1.4217   -1.7074    0.0000 C   0  0  0  0  0  0  0  0  0
   -0.6291   -1.9363    0.0000 C   0  0  0  0  0  0  0  0  0
   -0.4309   -2.7371    0.0000 C   0  0  0  0  0  0  0  0  0
   -1.0254   -0.3346    0.0000 C   0  0  0  0  0  0  0  0  0
   -1.2236    0.4663    0.0000 C   0  0  0  0  0  0  0  0  0
   -0.6291    1.0383    0.0000 C   0  0  0  0  0  0  0  0  0
    0.1635    0.8095    0.0000 C   0  0  0  0  0  0  0  0  0
    0.3617    0.0087    0.0000 C   0  0  0  0  0  0  0  0  0
   -0.2328   -0.5634    0.0000 C   0  0  0  0  0  0  0  0  0
    0.7580    1.3815    0.0000 C   0  0  0  0  0  0  0  0  0
    1.3525    1.9536    0.0000 C   0  0  0  0  0  0  0  0  0
    1.9470    2.5256    0.0000 C   0  0  0  0  0  0  0  0  0
    1.7488    3.3265    0.0000 C   0  0  0  0  0  0  0  0  0
    2.3433    3.8985    0.0000 C   0  0  0  0  0  0  0  0  0
    3.1359    3.6697    0.0000 C   0  0  0  0  0  0  0  0  0
    3.3341    2.8688    0.0000 C   0  0  0  0  0  0  0  0  0
    2.7396    2.2968    0.0000 C   0  0  0  0  0  0  0  0  0
   -6.5738   -1.7074    0.0000 C   0  0  0  0  0  0  0  0  0
   -7.1683   -2.2795    0.0000 C   0  0  0  0  0  0  0  0  0
   -7.9610   -2.0507    0.0000 C   0  0  0  0  0  0  0  0  0
   -8.1591   -1.2498    0.0000 C   0  0  0  0  0  0  0  0  0
   -7.5646   -0.6778    0.0000 C   0  0  0  0  0  0  0  0  0
   -6.7720   -0.9066    0.0000 C   0  0  0  0  0  0  0  0  0
   -8.9517   -1.0210    0.0000 C   0  0  0  0  0  0  0  0  0
   -9.5462   -1.5930    0.0000 C   0  0  0  0  0  0  0  0  0
  -10.3389   -1.3642    0.0000 C   0  0  0  0  0  0  0  0  0
  -10.5370   -0.5634    0.0000 C   0  0  0  0  0  0  0  0  0
   -9.9425    0.0087    0.0000 C   0  0  0  0  0  0  0  0  0
   -9.1499   -0.2201    0.0000 C   0  0  0  0  0  0  0  0  0
  1  2  2  0  0  0  0
  2  3  1  0  0  0  0
  2 26  1  0  0  0  0
  3  4  1  0  0  0  0
  4  5  1  0  0  0  0
  5  6  1  0  0  0  0
  6  7  1  0  0  0  0
  7  8  1  0  0  0  0
  8  9  1  0  0  0  0
  8 12  1  0  0  0  0
  9 10  1  0  0  0  0
 10 11  1  0  0  0  0
 12 13  1  0  0  0  0
 12 17  1  0  0  0  0
 13 14  1  0  0  0  0
 14 15  1  0  0  0  0
 15 16  2  0  0  0  0
 15 18  1  0  0  0  0
 16 17  1  0  0  0  0
 18 19  3  0  0  0  0
 19 20  1  0  0  0  0
 20 21  4  0  0  0  0
 20 25  4  0  0  0  0
 21 22  4  0  0  0  0
 22 23  4  0  0  0  0
 23 24  4  0  0  0  0
 24 25  4  0  0  0  0
 26 27  4  0  0  0  0
 26 31  4  0  0  0  0
 27 28  4  0  0  0  0
 28 29  4  0  0  0  0
 29 30  4  0  0  0  0
 29 32  1  0  0  0  0
 30 31  4  0  0  0  0
 32 33  4  0  0  0  0
 32 37  4  0  0  0  0
 33 34  4  0  0  0  0
 34 35  4  0  0  0  0
 35 36  4  0  0  0  0
 36 37  4  0  0  0  0
M  END
>  <Name_Molregno>
514265

>  <DOPAMINE D2>
5.3

>  <DOPAMINE D3>
6.52

>  <DOPAMINE D4>
5.51

$$$$
514266
  Marvin  02231216192D 0   1.00000     0.00000     0

 31 33  0  0  1  0  0  0  0  0999 V2000
   -0.5655   -3.9359    0.0000 O   0  0  0  0  0  0  0  0  0
   -0.7636   -3.1351    0.0000 C   0  0  0  0  0  0  0  0  0
   -0.1691   -2.5630    0.0000 N   0  0  0  0  0  0  0  0  0
    0.6235   -2.7919    0.0000 C   0  0  0  0  0  0  0  0  0
    1.2180   -2.2198    0.0000 C   0  0  0  0  0  0  0  0  0
    2.0106   -2.4486    0.0000 C   0  0  0  0  0  0  0  0  0
    2.6051   -1.8766    0.0000 C   0  0  0  0  0  0  0  0  0
    3.3977   -2.1054    0.0000 N   0  0  0  0  0  0  0  0  0
    3.5959   -2.9063    0.0000 C   0  0  0  0  0  0  0  0  0
    4.3885   -3.1351    0.0000 C   0  0  0  0  0  0  0  0  0
    4.5867   -3.9359    0.0000 C   0  0  0  0  0  0  0  0  0
    3.9922   -1.5334    0.0000 C   0  0  0  0  0  0  0  0  0
    3.7940   -0.7325    0.0000 C   0  0  0  0  0  0  0  0  0
    4.3885   -0.1605    0.0000 C   0  0  0  0  0  0  0  0  0
    5.1811   -0.3893    0.0000 C   0  0  0  0  0  0  0  0  0
    5.3793   -1.1902    0.0000 C   0  0  0  0  0  0  0  0  0
    4.7848   -1.7622    0.0000 C   0  0  0  0  0  0  0  0  0
    5.7756    0.1827    0.0000 C   0  0  0  0  0  0  0  0  0
    6.3701    0.7548    0.0000 C   0  0  0  0  0  0  0  0  0
   -1.5563   -2.9063    0.0000 C   0  0  0  0  0  0  0  0  0
   -2.1507   -3.4783    0.0000 C   0  0  0  0  0  0  0  0  0
   -2.9434   -3.2495    0.0000 C   0  0  0  0  0  0  0  0  0
   -3.1415   -2.4486    0.0000 C   0  0  0  0  0  0  0  0  0
   -2.5470   -1.8766    0.0000 C   0  0  0  0  0  0  0  0  0
   -1.7544   -2.1054    0.0000 C   0  0  0  0  0  0  0  0  0
   -3.9342   -2.2198    0.0000 C   0  0  0  0  0  0  0  0  0
   -4.5286   -2.7919    0.0000 C   0  0  0  0  0  0  0  0  0
   -5.3213   -2.5630    0.0000 C   0  0  0  0  0  0  0  0  0
   -5.5194   -1.7622    0.0000 C   0  0  0  0  0  0  0  0  0
   -4.9249   -1.1902    0.0000 C   0  0  0  0  0  0  0  0  0
   -4.1323   -1.4190    0.0000 C   0  0  0  0  0  0  0  0  0
  1  2  2  0  0  0  0
  2  3  1  0  0  0  0
  2 20  1  0  0  0  0
  3  4  1  0  0  0  0
  4  5  1  0  0  0  0
  5  6  1  0  0  0  0
  6  7  1  0  0  0  0
  7  8  1  0  0  0  0
  8  9  1  0  0  0  0
  8 12  1  0  0  0  0
  9 10  1  0  0  0  0
 10 11  1  0  0  0  0
 12 13  1  0  0  0  0
 12 17  1  0  0  0  0
 13 14  1  0  0  0  0
 14 15  1  0  0  0  0
 15 16  2  0  0  0  0
 15 18  1  0  0  0  0
 16 17  1  0  0  0  0
 18 19  3  0  0  0  0
 20 21  4  0  0  0  0
 20 25  4  0  0  0  0
 21 22  4  0  0  0  0
 22 23  4  0  0  0  0
 23 24  4  0  0  0  0
 23 26  1  0  0  0  0
 24 25  4  0  0  0  0
 26 27  4  0  0  0  0
 26 31  4  0  0  0  0
 27 28  4  0  0  0  0
 28 29  4  0  0  0  0
 29 30  4  0  0  0  0
 30 31  4  0  0  0  0
M  END
>  <Name_Molregno>
514266

>  <DOPAMINE D2>
7.39

>  <DOPAMINE D3>
9.4

>  <DOPAMINE D4>
8.37

$$$$
514268
  Marvin  02231216192D 0   1.00000     0.00000     0

 39 43  0  0  1  0  0  0  0  0999 V2000
   -4.8826    2.0561    0.0000 N   0  0  0  0  0  0  0  0  0
   -4.0979    2.3110    0.0000 N   0  0  0  0  0  0  0  0  0
   -3.6130    1.6436    0.0000 N   0  0  0  0  0  0  0  0  0
   -4.0979    0.9762    0.0000 C   0  0  0  0  0  0  0  0  0
   -4.8826    1.2311    0.0000 C   0  0  0  0  0  0  0  0  0
   -5.5500    0.7462    0.0000 C   0  0  0  0  0  0  0  0  0
   -5.4638   -0.0743    0.0000 C   0  0  0  0  0  0  0  0  0
   -6.1312   -0.5592    0.0000 C   0  0  0  0  0  0  0  0  0
   -6.8849   -0.2237    0.0000 C   0  0  0  0  0  0  0  0  0
   -6.9711    0.5968    0.0000 C   0  0  0  0  0  0  0  0  0
   -6.3037    1.0817    0.0000 C   0  0  0  0  0  0  0  0  0
   -7.5523   -0.7086    0.0000 C   0  0  0  0  0  0  0  0  0
   -7.4661   -1.5291    0.0000 C   0  0  0  0  0  0  0  0  0
   -8.1335   -2.0140    0.0000 C   0  0  0  0  0  0  0  0  0
   -8.8872   -1.6784    0.0000 C   0  0  0  0  0  0  0  0  0
   -8.9734   -0.8579    0.0000 C   0  0  0  0  0  0  0  0  0
   -8.3060   -0.3730    0.0000 C   0  0  0  0  0  0  0  0  0
   -2.7880    1.6436    0.0000 C   0  0  0  0  0  0  0  0  0
   -2.3755    0.9291    0.0000 C   0  0  0  0  0  0  0  0  0
   -1.5505    0.9291    0.0000 C   0  0  0  0  0  0  0  0  0
   -1.1380    0.2147    0.0000 C   0  0  0  0  0  0  0  0  0
   -0.3130    0.2147    0.0000 N   0  0  0  0  0  0  0  0  0
    0.0995    0.9291    0.0000 C   0  0  0  0  0  0  0  0  0
   -0.3130    1.6436    0.0000 C   0  0  0  0  0  0  0  0  0
    0.0995    2.3581    0.0000 C   0  0  0  0  0  0  0  0  0
    0.0995   -0.4998    0.0000 C   0  0  0  0  0  0  0  0  0
    0.9245   -0.4998    0.0000 C   0  0  0  0  0  0  0  0  0
    1.3370   -1.2143    0.0000 C   0  0  0  0  0  0  0  0  0
    0.9245   -1.9287    0.0000 C   0  0  0  0  0  0  0  0  0
    0.0995   -1.9287    0.0000 C   0  0  0  0  0  0  0  0  0
   -0.3130   -1.2143    0.0000 C   0  0  0  0  0  0  0  0  0
    1.3370   -2.6432    0.0000 C   0  0  0  0  0  0  0  0  0
    1.7495   -3.3577    0.0000 C   0  0  0  0  0  0  0  0  0
    2.1620   -4.0722    0.0000 C   0  0  0  0  0  0  0  0  0
    2.9870   -4.0722    0.0000 C   0  0  0  0  0  0  0  0  0
    3.3995   -4.7866    0.0000 C   0  0  0  0  0  0  0  0  0
    2.9870   -5.5011    0.0000 C   0  0  0  0  0  0  0  0  0
    2.1620   -5.5011    0.0000 C   0  0  0  0  0  0  0  0  0
    1.7495   -4.7866    0.0000 C   0  0  0  0  0  0  0  0  0
  1  2  4  0  0  0  0
  1  5  4  0  0  0  0
  2  3  4  0  0  0  0
  3  4  4  0  0  0  0
  3 18  1  0  0  0  0
  4  5  4  0  0  0  0
  5  6  1  0  0  0  0
  6  7  4  0  0  0  0
  6 11  4  0  0  0  0
  7  8  4  0  0  0  0
  8  9  4  0  0  0  0
  9 10  4  0  0  0  0
  9 12  1  0  0  0  0
 10 11  4  0  0  0  0
 12 13  4  0  0  0  0
 12 17  4  0  0  0  0
 13 14  4  0  0  0  0
 14 15  4  0  0  0  0
 15 16  4  0  0  0  0
 16 17  4  0  0  0  0
 18 19  1  0  0  0  0
 19 20  1  0  0  0  0
 20 21  1  0  0  0  0
 21 22  1  0  0  0  0
 22 23  1  0  0  0  0
 22 26  1  0  0  0  0
 23 24  1  0  0  0  0
 24 25  1  0  0  0  0
 26 27  1  0  0  0  0
 26 31  1  0  0  0  0
 27 28  1  0  0  0  0
 28 29  1  0  0  0  0
 29 30  2  0  0  0  0
 29 32  1  0  0  0  0
 30 31  1  0  0  0  0
 32 33  3  0  0  0  0
 33 34  1  0  0  0  0
 34 35  4  0  0  0  0
 34 39  4  0  0  0  0
 35 36  4  0  0  0  0
 36 37  4  0  0  0  0
 37 38  4  0  0  0  0
 38 39  4  0  0  0  0
M  END
>  <Name_Molregno>
514268

>  <DOPAMINE D2>
6.71

>  <DOPAMINE D3>
6.82

>  <DOPAMINE D4>
5.96

$$$$
514330
  Marvin  02231216192D 0   1.00000     0.00000     0

 33 36  0  0  1  0  0  0  0  0999 V2000
   -2.7128    1.0444    0.0000 N   0  0  0  0  0  0  0  0  0
   -1.9282    1.2993    0.0000 N   0  0  0  0  0  0  0  0  0
   -1.4433    0.6319    0.0000 N   0  0  0  0  0  0  0  0  0
   -1.9282   -0.0355    0.0000 C   0  0  0  0  0  0  0  0  0
   -2.7128    0.2194    0.0000 C   0  0  0  0  0  0  0  0  0
   -3.3803   -0.2655    0.0000 C   0  0  0  0  0  0  0  0  0
   -3.2940   -1.0860    0.0000 C   0  0  0  0  0  0  0  0  0
   -3.9615   -1.5709    0.0000 C   0  0  0  0  0  0  0  0  0
   -4.7151   -1.2354    0.0000 C   0  0  0  0  0  0  0  0  0
   -4.8014   -0.4149    0.0000 C   0  0  0  0  0  0  0  0  0
   -4.1339    0.0700    0.0000 C   0  0  0  0  0  0  0  0  0
   -5.3826   -1.7203    0.0000 C   0  0  0  0  0  0  0  0  0
   -5.2963   -2.5408    0.0000 C   0  0  0  0  0  0  0  0  0
   -5.9638   -3.0257    0.0000 C   0  0  0  0  0  0  0  0  0
   -6.7175   -2.6901    0.0000 C   0  0  0  0  0  0  0  0  0
   -6.8037   -1.8697    0.0000 C   0  0  0  0  0  0  0  0  0
   -6.1363   -1.3847    0.0000 C   0  0  0  0  0  0  0  0  0
   -0.6183    0.6319    0.0000 C   0  0  0  0  0  0  0  0  0
   -0.2058   -0.0826    0.0000 C   0  0  0  0  0  0  0  0  0
    0.6192   -0.0826    0.0000 C   0  0  0  0  0  0  0  0  0
    1.0317   -0.7970    0.0000 C   0  0  0  0  0  0  0  0  0
    1.8567   -0.7970    0.0000 N   0  0  0  0  0  0  0  0  0
    2.2692   -0.0826    0.0000 C   0  0  0  0  0  0  0  0  0
    1.8567    0.6319    0.0000 C   0  0  0  0  0  0  0  0  0
    2.2692    1.3464    0.0000 C   0  0  0  0  0  0  0  0  0
    2.2692   -1.5115    0.0000 C   0  0  0  0  0  0  0  0  0
    3.0942   -1.5115    0.0000 C   0  0  0  0  0  0  0  0  0
    3.5067   -2.2260    0.0000 C   0  0  0  0  0  0  0  0  0
    3.0942   -2.9405    0.0000 C   0  0  0  0  0  0  0  0  0
    2.2692   -2.9405    0.0000 C   0  0  0  0  0  0  0  0  0
    1.8567   -2.2260    0.0000 C   0  0  0  0  0  0  0  0  0
    3.5067   -3.6549    0.0000 C   0  0  0  0  0  0  0  0  0
    3.9192   -4.3694    0.0000 C   0  0  0  0  0  0  0  0  0
  1  2  4  0  0  0  0
  1  5  4  0  0  0  0
  2  3  4  0  0  0  0
  3  4  4  0  0  0  0
  3 18  1  0  0  0  0
  4  5  4  0  0  0  0
  5  6  1  0  0  0  0
  6  7  4  0  0  0  0
  6 11  4  0  0  0  0
  7  8  4  0  0  0  0
  8  9  4  0  0  0  0
  9 10  4  0  0  0  0
  9 12  1  0  0  0  0
 10 11  4  0  0  0  0
 12 13  4  0  0  0  0
 12 17  4  0  0  0  0
 13 14  4  0  0  0  0
 14 15  4  0  0  0  0
 15 16  4  0  0  0  0
 16 17  4  0  0  0  0
 18 19  1  0  0  0  0
 19 20  1  0  0  0  0
 20 21  1  0  0  0  0
 21 22  1  0  0  0  0
 22 23  1  0  0  0  0
 22 26  1  0  0  0  0
 23 24  1  0  0  0  0
 24 25  1  0  0  0  0
 26 27  1  0  0  0  0
 26 31  1  0  0  0  0
 27 28  1  0  0  0  0
 28 29  1  0  0  0  0
 29 30  2  0  0  0  0
 29 32  1  0  0  0  0
 30 31  1  0  0  0  0
 32 33  3  0  0  0  0
M  END
>  <Name_Molregno>
514330

>  <DOPAMINE D2>
6.49

>  <DOPAMINE D3>
8.75

>  <DOPAMINE D4>
6.72

$$$$
514331
  Marvin  02231216192D 0   1.00000     0.00000     0

 23 24  0  0  1  0  0  0  0  0999 V2000
   -7.4168    0.8658    0.0000 N   0  0  0  0  0  0  0  0  0
   -6.6321    1.1207    0.0000 N   0  0  0  0  0  0  0  0  0
   -6.1472    0.4533    0.0000 N   0  0  0  0  0  0  0  0  0
   -6.6321   -0.2141    0.0000 C   0  0  0  0  0  0  0  0  0
   -7.4168    0.0408    0.0000 C   0  0  0  0  0  0  0  0  0
   -8.0842   -0.4441    0.0000 C   0  0  0  0  0  0  0  0  0
   -5.3222    0.4533    0.0000 C   0  0  0  0  0  0  0  0  0
   -4.9097   -0.2612    0.0000 C   0  0  0  0  0  0  0  0  0
   -4.0847   -0.2612    0.0000 C   0  0  0  0  0  0  0  0  0
   -3.6722   -0.9756    0.0000 C   0  0  0  0  0  0  0  0  0
   -2.8472   -0.9756    0.0000 N   0  0  0  0  0  0  0  0  0
   -2.4347   -0.2612    0.0000 C   0  0  0  0  0  0  0  0  0
   -2.8472    0.4533    0.0000 C   0  0  0  0  0  0  0  0  0
   -2.4347    1.1678    0.0000 C   0  0  0  0  0  0  0  0  0
   -2.4347   -1.6901    0.0000 C   0  0  0  0  0  0  0  0  0
   -1.6097   -1.6901    0.0000 C   0  0  0  0  0  0  0  0  0
   -1.1972   -2.4046    0.0000 C   0  0  0  0  0  0  0  0  0
   -1.6097   -3.1191    0.0000 C   0  0  0  0  0  0  0  0  0
   -2.4347   -3.1191    0.0000 C   0  0  0  0  0  0  0  0  0
   -2.8472   -2.4046    0.0000 C   0  0  0  0  0  0  0  0  0
   -1.1972   -3.8335    0.0000 C   0  0  0  0  0  0  0  0  0
   -0.7847   -4.5480    0.0000 C   0  0  0  0  0  0  0  0  0
   -0.3722   -5.2625    0.0000 C   0  0  0  0  0  0  0  0  0
  1  2  4  0  0  0  0
  1  5  4  0  0  0  0
  2  3  4  0  0  0  0
  3  4  4  0  0  0  0
  3  7  1  0  0  0  0
  4  5  4  0  0  0  0
  5  6  1  0  0  0  0
  7  8  1  0  0  0  0
  8  9  1  0  0  0  0
  9 10  1  0  0  0  0
 10 11  1  0  0  0  0
 11 12  1  0  0  0  0
 11 15  1  0  0  0  0
 12 13  1  0  0  0  0
 13 14  1  0  0  0  0
 15 16  1  0  0  0  0
 15 20  1  0  0  0  0
 16 17  1  0  0  0  0
 17 18  1  0  0  0  0
 18 19  2  0  0  0  0
 18 21  1  0  0  0  0
 19 20  1  0  0  0  0
 21 22  3  0  0  0  0
 22 23  1  0  0  0  0
M  END
>  <Name_Molregno>
514331

>  <DOPAMINE D2>
5.53

>  <DOPAMINE D3>
6.55

>  <DOPAMINE D4>
7

$$$$
514332
  Marvin  02231216192D 0   1.00000     0.00000     0

 23 24  0  0  0  0  0  0  0  0999 V2000
    0.6320   -3.0496    0.0000 O   0  0  0  0  0  0  0  0  0
    0.6320   -2.2246    0.0000 C   0  0  0  0  0  0  0  0  0
    1.3464   -1.8121    0.0000 N   0  0  0  0  0  0  0  0  0
    2.0609   -2.2246    0.0000 C   0  0  0  0  0  0  0  0  0
    2.7754   -1.8121    0.0000 C   0  0  0  0  0  0  0  0  0
    3.4899   -2.2246    0.0000 C   0  0  0  0  0  0  0  0  0
    4.2043   -1.8121    0.0000 C   0  0  0  0  0  0  0  0  0
    4.9188   -2.2246    0.0000 N   0  0  0  0  0  0  0  0  0
    5.6333   -1.8121    0.0000 C   0  0  0  0  0  0  0  0  0
    6.3477   -2.2246    0.0000 C   0  0  0  0  0  0  0  0  0
    7.0622   -1.8121    0.0000 C   0  0  0  0  0  0  0  0  0
   -0.0825   -1.8121    0.0000 C   0  0  0  0  0  0  0  0  0
   -0.7970   -2.2246    0.0000 C   0  0  0  0  0  0  0  0  0
   -1.5114   -1.8121    0.0000 C   0  0  0  0  0  0  0  0  0
   -1.5114   -0.9871    0.0000 C   0  0  0  0  0  0  0  0  0
   -0.7970   -0.5746    0.0000 C   0  0  0  0  0  0  0  0  0
   -0.0825   -0.9871    0.0000 C   0  0  0  0  0  0  0  0  0
   -2.2259   -0.5746    0.0000 C   0  0  0  0  0  0  0  0  0
   -2.9404   -0.9871    0.0000 C   0  0  0  0  0  0  0  0  0
   -3.6548   -0.5746    0.0000 C   0  0  0  0  0  0  0  0  0
   -3.6548    0.2504    0.0000 C   0  0  0  0  0  0  0  0  0
   -2.9404    0.6629    0.0000 C   0  0  0  0  0  0  0  0  0
   -2.2259    0.2504    0.0000 C   0  0  0  0  0  0  0  0  0
  1  2  2  0  0  0  0
  2  3  1  0  0  0  0
  2 12  1  0  0  0  0
  3  4  1  0  0  0  0
  4  5  1  0  0  0  0
  5  6  1  0  0  0  0
  6  7  1  0  0  0  0
  7  8  1  0  0  0  0
  8  9  1  0  0  0  0
  9 10  1  0  0  0  0
 10 11  1  0  0  0  0
 12 13  4  0  0  0  0
 12 17  4  0  0  0  0
 13 14  4  0  0  0  0
 14 15  4  0  0  0  0
 15 16  4  0  0  0  0
 15 18  1  0  0  0  0
 16 17  4  0  0  0  0
 18 19  4  0  0  0  0
 18 23  4  0  0  0  0
 19 20  4  0  0  0  0
 20 21  4  0  0  0  0
 21 22  4  0  0  0  0
 22 23  4  0  0  0  0
M  END
>  <Name_Molregno>
514332

>  <DOPAMINE D2>
4.67

>  <DOPAMINE D3>
4.98

>  <DOPAMINE D4>
5.21

$$$$
514333
  Marvin  02231216192D 0   1.00000     0.00000     0

 26 27  0  0  0  0  0  0  0  0999 V2000
   -0.5162   -3.0170    0.0000 O   0  0  0  0  0  0  0  0  0
   -0.7144   -2.2161    0.0000 C   0  0  0  0  0  0  0  0  0
   -0.1199   -1.6441    0.0000 N   0  0  0  0  0  0  0  0  0
    0.6727   -1.8729    0.0000 C   0  0  0  0  0  0  0  0  0
    1.2672   -1.3009    0.0000 C   0  0  0  0  0  0  0  0  0
    2.0598   -1.5297    0.0000 C   0  0  0  0  0  0  0  0  0
    2.6543   -0.9576    0.0000 C   0  0  0  0  0  0  0  0  0
    3.4469   -1.1865    0.0000 N   0  0  0  0  0  0  0  0  0
    4.0414   -0.6144    0.0000 C   0  0  0  0  0  0  0  0  0
    4.8340   -0.8432    0.0000 C   0  0  0  0  0  0  0  0  0
    5.4285   -0.2712    0.0000 C   0  0  0  0  0  0  0  0  0
    3.6451   -1.9873    0.0000 C   0  0  0  0  0  0  0  0  0
    4.4377   -2.2161    0.0000 C   0  0  0  0  0  0  0  0  0
    4.6359   -3.0170    0.0000 C   0  0  0  0  0  0  0  0  0
   -1.5070   -1.9873    0.0000 C   0  0  0  0  0  0  0  0  0
   -2.1015   -2.5593    0.0000 C   0  0  0  0  0  0  0  0  0
   -2.8941   -2.3305    0.0000 C   0  0  0  0  0  0  0  0  0
   -3.0923   -1.5297    0.0000 C   0  0  0  0  0  0  0  0  0
   -2.4978   -0.9576    0.0000 C   0  0  0  0  0  0  0  0  0
   -1.7052   -1.1865    0.0000 C   0  0  0  0  0  0  0  0  0
   -3.8849   -1.3009    0.0000 C   0  0  0  0  0  0  0  0  0
   -4.4794   -1.8729    0.0000 C   0  0  0  0  0  0  0  0  0
   -5.2721   -1.6441    0.0000 C   0  0  0  0  0  0  0  0  0
   -5.4702   -0.8432    0.0000 C   0  0  0  0  0  0  0  0  0
   -4.8757   -0.2712    0.0000 C   0  0  0  0  0  0  0  0  0
   -4.0831   -0.5000    0.0000 C   0  0  0  0  0  0  0  0  0
  1  2  2  0  0  0  0
  2  3  1  0  0  0  0
  2 15  1  0  0  0  0
  3  4  1  0  0  0  0
  4  5  1  0  0  0  0
  5  6  1  0  0  0  0
  6  7  1  0  0  0  0
  7  8  1  0  0  0  0
  8  9  1  0  0  0  0
  8 12  1  0  0  0  0
  9 10  1  0  0  0  0
 10 11  1  0  0  0  0
 12 13  1  0  0  0  0
 13 14  1  0  0  0  0
 15 16  4  0  0  0  0
 15 20  4  0  0  0  0
 16 17  4  0  0  0  0
 17 18  4  0  0  0  0
 18 19  4  0  0  0  0
 18 21  1  0  0  0  0
 19 20  4  0  0  0  0
 21 22  4  0  0  0  0
 21 26  4  0  0  0  0
 22 23  4  0  0  0  0
 23 24  4  0  0  0  0
 24 25  4  0  0  0  0
 25 26  4  0  0  0  0
M  END
>  <Name_Molregno>
514333

>  <DOPAMINE D2>
5.04

>  <DOPAMINE D3>
6.02

>  <DOPAMINE D4>
5.85

$$$$
514334
  Marvin  02231216192D 0   1.00000     0.00000     0

 29 31  0  0  0  0  0  0  0  0999 V2000
   -1.0279   -3.5012    0.0000 O   0  0  0  0  0  0  0  0  0
   -1.2260   -2.7003    0.0000 C   0  0  0  0  0  0  0  0  0
   -0.6316   -2.1283    0.0000 N   0  0  0  0  0  0  0  0  0
    0.1611   -2.3571    0.0000 C   0  0  0  0  0  0  0  0  0
    0.7556   -1.7851    0.0000 C   0  0  0  0  0  0  0  0  0
    1.5482   -2.0139    0.0000 C   0  0  0  0  0  0  0  0  0
    2.1427   -1.4419    0.0000 C   0  0  0  0  0  0  0  0  0
    2.9353   -1.6707    0.0000 N   0  0  0  0  0  0  0  0  0
    3.1335   -2.4715    0.0000 C   0  0  0  0  0  0  0  0  0
    3.9261   -2.7003    0.0000 C   0  0  0  0  0  0  0  0  0
    4.1242   -3.5012    0.0000 C   0  0  0  0  0  0  0  0  0
    3.5298   -1.0986    0.0000 C   0  0  0  0  0  0  0  0  0
    3.3316   -0.2978    0.0000 C   0  0  0  0  0  0  0  0  0
    3.9261    0.2742    0.0000 C   0  0  0  0  0  0  0  0  0
    4.7187    0.0454    0.0000 C   0  0  0  0  0  0  0  0  0
    4.9169   -0.7554    0.0000 C   0  0  0  0  0  0  0  0  0
    4.3224   -1.3275    0.0000 C   0  0  0  0  0  0  0  0  0
   -2.0187   -2.4715    0.0000 C   0  0  0  0  0  0  0  0  0
   -2.6131   -3.0436    0.0000 C   0  0  0  0  0  0  0  0  0
   -3.4058   -2.8148    0.0000 C   0  0  0  0  0  0  0  0  0
   -3.6039   -2.0139    0.0000 C   0  0  0  0  0  0  0  0  0
   -3.0095   -1.4419    0.0000 C   0  0  0  0  0  0  0  0  0
   -2.2168   -1.6707    0.0000 C   0  0  0  0  0  0  0  0  0
   -4.3966   -1.7851    0.0000 C   0  0  0  0  0  0  0  0  0
   -4.9910   -2.3571    0.0000 C   0  0  0  0  0  0  0  0  0
   -5.7837   -2.1283    0.0000 C   0  0  0  0  0  0  0  0  0
   -5.9818   -1.3275    0.0000 C   0  0  0  0  0  0  0  0  0
   -5.3874   -0.7554    0.0000 C   0  0  0  0  0  0  0  0  0
   -4.5947   -0.9842    0.0000 C   0  0  0  0  0  0  0  0  0
  1  2  2  0  0  0  0
  2  3  1  0  0  0  0
  2 18  1  0  0  0  0
  3  4  1  0  0  0  0
  4  5  1  0  0  0  0
  5  6  1  0  0  0  0
  6  7  1  0  0  0  0
  7  8  1  0  0  0  0
  8  9  1  0  0  0  0
  8 12  1  0  0  0  0
  9 10  1  0  0  0  0
 10 11  1  0  0  0  0
 12 13  1  0  0  0  0
 12 17  1  0  0  0  0
 13 14  1  0  0  0  0
 14 15  1  0  0  0  0
 15 16  1  0  0  0  0
 16 17  1  0  0  0  0
 18 19  4  0  0  0  0
 18 23  4  0  0  0  0
 19 20  4  0  0  0  0
 20 21  4  0  0  0  0
 21 22  4  0  0  0  0
 21 24  1  0  0  0  0
 22 23  4  0  0  0  0
 24 25  4  0  0  0  0
 24 29  4  0  0  0  0
 25 26  4  0  0  0  0
 26 27  4  0  0  0  0
 27 28  4  0  0  0  0
 28 29  4  0  0  0  0
M  END
>  <Name_Molregno>
514334

>  <DOPAMINE D2>
5.26

>  <DOPAMINE D3>
6.85

>  <DOPAMINE D4>
6.17

$$$$
518965
  Marvin  02231216192D 0   1.00000     0.00000     0

 22 25  0  0  0  0  0  0  0  0999 V2000
   -2.7343   -1.0269    0.0000 N   0  0  0  0  0  0  0  0  0
   -3.2193   -0.3595    0.0000 C   0  0  0  0  0  0  0  0  0
   -2.7343    0.3079    0.0000 C   0  0  0  0  0  0  0  0  0
   -1.9497    0.0530    0.0000 C   0  0  0  0  0  0  0  0  0
   -1.2353    0.4655    0.0000 C   0  0  0  0  0  0  0  0  0
   -0.5208    0.0530    0.0000 C   0  0  0  0  0  0  0  0  0
   -0.5208   -0.7720    0.0000 C   0  0  0  0  0  0  0  0  0
   -1.2353   -1.1845    0.0000 N   0  0  0  0  0  0  0  0  0
   -1.9497   -0.7720    0.0000 C   0  0  0  0  0  0  0  0  0
   -2.9893    1.0926    0.0000 C   0  0  0  0  0  0  0  0  0
   -2.4373    1.7057    0.0000 N   0  0  0  0  0  0  0  0  0
   -2.6922    2.4903    0.0000 C   0  0  0  0  0  0  0  0  0
   -2.1402    3.1034    0.0000 C   0  0  0  0  0  0  0  0  0
   -1.3332    2.9318    0.0000 N   0  0  0  0  0  0  0  0  0
   -1.0782    2.1472    0.0000 C   0  0  0  0  0  0  0  0  0
   -1.6303    1.5341    0.0000 C   0  0  0  0  0  0  0  0  0
   -0.7812    3.5449    0.0000 C   0  0  0  0  0  0  0  0  0
   -1.0361    4.3296    0.0000 N   0  0  0  0  0  0  0  0  0
   -0.4841    4.9427    0.0000 C   0  0  0  0  0  0  0  0  0
    0.3229    4.7711    0.0000 C   0  0  0  0  0  0  0  0  0
    0.5779    3.9865    0.0000 C   0  0  0  0  0  0  0  0  0
    0.0258    3.3734    0.0000 N   0  0  0  0  0  0  0  0  0
  1  2  4  0  0  0  0
  1  9  4  0  0  0  0
  2  3  4  0  0  0  0
  3  4  4  0  0  0  0
  3 10  1  0  0  0  0
  4  5  4  0  0  0  0
  4  9  4  0  0  0  0
  5  6  4  0  0  0  0
  6  7  4  0  0  0  0
  7  8  4  0  0  0  0
  8  9  4  0  0  0  0
 10 11  1  0  0  0  0
 11 12  1  0  0  0  0
 11 16  1  0  0  0  0
 12 13  1  0  0  0  0
 13 14  1  0  0  0  0
 14 15  1  0  0  0  0
 14 17  1  0  0  0  0
 15 16  1  0  0  0  0
 17 18  4  0  0  0  0
 17 22  4  0  0  0  0
 18 19  4  0  0  0  0
 19 20  4  0  0  0  0
 20 21  4  0  0  0  0
 21 22  4  0  0  0  0
M  STY  1   1 DAT
M  SAL   1  1   1
M  SDT   1 MRV_IMPLICIT_H                                        
M  SDD   1     0.0000    0.0000    DR    ALL  0       0  
M  SED   1 IMPL_H1
M  END
>  <Name_Molregno>
518965

>  <DOPAMINE D2>
5.93

>  <DOPAMINE D3>
5.82

>  <DOPAMINE D4>
7.25

$$$$
519022
  Marvin  02231216192D 0   1.00000     0.00000     0

 27 31  0  0  1  0  0  0  0  0999 V2000
    9.1761   -0.7428    0.0000 Cl  0  0  0  0  0  0  0  0  0
    8.3535   -0.8053    0.0000 C   0  0  0  0  0  0  0  0  0
    7.9963   -1.5490    0.0000 C   0  0  0  0  0  0  0  0  0
    7.1737   -1.6116    0.0000 C   0  0  0  0  0  0  0  0  0
    6.7082   -0.9304    0.0000 C   0  0  0  0  0  0  0  0  0
    7.0654   -0.1867    0.0000 C   0  0  0  0  0  0  0  0  0
    7.8880   -0.1242    0.0000 C   0  0  0  0  0  0  0  0  0
    5.8856   -0.9929    0.0000 C   0  0  0  0  0  0  0  0  0
    5.7129   -1.7996    0.0000 O   0  0  0  0  0  0  0  0  0
    5.5915   -0.2179    0.0000 C   0  0  0  0  0  0  0  0  0
    4.6833   -0.4133    0.0000 C   0  0  0  0  0  0  0  0  0
    4.0480   -0.0905    0.0000 N   0  0  0  0  0  0  0  0  0
    4.3428   -0.8610    0.0000 C   0  0  0  0  0  0  0  0  0
    5.2961   -0.6725    0.0000 C   0  0  0  0  0  0  0  0  0
    3.9710   -1.6607    0.0000 C   0  0  0  0  0  0  0  0  0
    4.5064   -1.1706    0.0000 C   0  0  0  0  0  0  0  0  0
    3.4960    0.5226    0.0000 C   0  0  0  0  0  0  0  0  0
    3.7509    1.3072    0.0000 C   0  0  0  0  0  0  0  0  0
    3.1989    1.9203    0.0000 C   0  0  0  0  0  0  0  0  0
    3.3704    2.7273    0.0000 C   0  0  0  0  0  0  0  0  0
    2.6560    3.1398    0.0000 C   0  0  0  0  0  0  0  0  0
    2.0429    2.5878    0.0000 N   0  0  0  0  0  0  0  0  0
    2.3784    1.8341    0.0000 C   0  0  0  0  0  0  0  0  0
    2.6560    3.9648    0.0000 C   0  0  0  0  0  0  0  0  0
    3.3704    4.3773    0.0000 C   0  0  0  0  0  0  0  0  0
    4.0849    3.9648    0.0000 C   0  0  0  0  0  0  0  0  0
    4.0849    3.1398    0.0000 C   0  0  0  0  0  0  0  0  0
  1  2  1  0  0  0  0
  2  3  4  0  0  0  0
  2  7  4  0  0  0  0
  3  4  4  0  0  0  0
  4  5  4  0  0  0  0
  5  6  4  0  0  0  0
  5  8  1  0  0  0  0
  6  7  4  0  0  0  0
  8  9  1  0  0  0  0
  8 10  1  0  0  0  0
  8 14  1  0  0  0  0
 10 11  1  0  0  0  0
 11 12  1  0  0  0  0
 11 16  1  0  0  0  0
 12 13  1  0  0  0  0
 12 17  1  0  0  0  0
 13 14  1  0  0  0  0
 13 15  1  0  0  0  0
 15 16  1  0  0  0  0
 17 18  1  0  0  0  0
 18 19  1  0  0  0  0
 19 20  4  0  0  0  0
 19 23  4  0  0  0  0
 20 21  4  0  0  0  0
 20 27  4  0  0  0  0
 21 22  4  0  0  0  0
 21 24  4  0  0  0  0
 22 23  4  0  0  0  0
 24 25  4  0  0  0  0
 25 26  4  0  0  0  0
 26 27  4  0  0  0  0
M  STY  1   1 DAT
M  SAL   1  1  22
M  SDT   1 MRV_IMPLICIT_H                                        
M  SDD   1     0.0000    0.0000    DR    ALL  0       0  
M  SED   1 IMPL_H1
M  END
>  <Name_Molregno>
519022

>  <DOPAMINE D2>
7.28

>  <DOPAMINE D3>
7.74

>  <DOPAMINE D4>
6.56

$$$$
519023
  Marvin  02231216192D 0   1.00000     0.00000     0

 23 26  0  0  1  0  0  0  0  0999 V2000
    0.1453   -0.8004    0.0000 Cl  0  0  0  0  0  0  0  0  0
    0.9657   -0.7141    0.0000 C   0  0  0  0  0  0  0  0  0
    1.3013    0.0396    0.0000 C   0  0  0  0  0  0  0  0  0
    2.1218    0.1258    0.0000 C   0  0  0  0  0  0  0  0  0
    2.6067   -0.5416    0.0000 C   0  0  0  0  0  0  0  0  0
    2.2712   -1.2953    0.0000 C   0  0  0  0  0  0  0  0  0
    1.4507   -1.3816    0.0000 C   0  0  0  0  0  0  0  0  0
    3.4272   -0.4554    0.0000 C   0  0  0  0  0  0  0  0  0
    3.4272   -1.2804    0.0000 O   0  0  0  0  0  0  0  0  0
    3.2557    0.3516    0.0000 C   0  0  0  0  0  0  0  0  0
    3.9701    0.7641    0.0000 C   0  0  0  0  0  0  0  0  0
    4.5832    0.2120    0.0000 N   0  0  0  0  0  0  0  0  0
    4.2477   -0.5416    0.0000 C   0  0  0  0  0  0  0  0  0
    5.3902    0.3836    0.0000 C   0  0  0  0  0  0  0  0  0
    5.6451    1.1682    0.0000 C   0  0  0  0  0  0  0  0  0
    6.4298    1.4231    0.0000 C   0  0  0  0  0  0  0  0  0
    6.4298    2.2481    0.0000 C   0  0  0  0  0  0  0  0  0
    5.6451    2.5031    0.0000 N   0  0  0  0  0  0  0  0  0
    5.1602    1.8356    0.0000 C   0  0  0  0  0  0  0  0  0
    7.1442    2.6606    0.0000 C   0  0  0  0  0  0  0  0  0
    7.8587    2.2481    0.0000 C   0  0  0  0  0  0  0  0  0
    7.8587    1.4231    0.0000 C   0  0  0  0  0  0  0  0  0
    7.1442    1.0106    0.0000 C   0  0  0  0  0  0  0  0  0
  1  2  1  0  0  0  0
  2  3  4  0  0  0  0
  2  7  4  0  0  0  0
  3  4  4  0  0  0  0
  4  5  4  0  0  0  0
  5  6  4  0  0  0  0
  5  8  1  0  0  0  0
  6  7  4  0  0  0  0
  8  9  1  0  0  0  0
  8 10  1  0  0  0  0
  8 13  1  0  0  0  0
 10 11  1  0  0  0  0
 11 12  1  0  0  0  0
 12 13  1  0  0  0  0
 12 14  1  0  0  0  0
 14 15  1  0  0  0  0
 15 16  4  0  0  0  0
 15 19  4  0  0  0  0
 16 17  4  0  0  0  0
 16 23  4  0  0  0  0
 17 18  4  0  0  0  0
 17 20  4  0  0  0  0
 18 19  4  0  0  0  0
 20 21  4  0  0  0  0
 21 22  4  0  0  0  0
 22 23  4  0  0  0  0
M  STY  1   1 DAT
M  SAL   1  1  18
M  SDT   1 MRV_IMPLICIT_H                                        
M  SDD   1     0.0000    0.0000    DR    ALL  0       0  
M  SED   1 IMPL_H1
M  END
>  <Name_Molregno>
519023

>  <DOPAMINE D3>
5.54

>  <DOPAMINE D4>
6.09

$$$$
519025
  Marvin  02231216192D 0   1.00000     0.00000     0

 24 27  0  0  0  0  0  0  0  0999 V2000
    0.1563    0.0146    0.0000 Cl  0  0  0  0  0  0  0  0  0
    0.9578    0.2102    0.0000 C   0  0  0  0  0  0  0  0  0
    1.1892    1.0021    0.0000 C   0  0  0  0  0  0  0  0  0
    1.9907    1.1977    0.0000 C   0  0  0  0  0  0  0  0  0
    2.5608    0.6014    0.0000 C   0  0  0  0  0  0  0  0  0
    3.3623    0.7970    0.0000 N   0  0  0  0  0  0  0  0  0
    3.5338    1.6039    0.0000 C   0  0  0  0  0  0  0  0  0
    4.2716    1.9730    0.0000 C   0  0  0  0  0  0  0  0  0
    5.0202    1.6262    0.0000 C   0  0  0  0  0  0  0  0  0
    5.2158    0.8247    0.0000 N   0  0  0  0  0  0  0  0  0
    4.7111    0.1721    0.0000 C   0  0  0  0  0  0  0  0  0
    3.8862    0.1597    0.0000 C   0  0  0  0  0  0  0  0  0
    6.0228    0.6532    0.0000 C   0  0  0  0  0  0  0  0  0
    6.2777   -0.1314    0.0000 C   0  0  0  0  0  0  0  0  0
    7.0623   -0.3864    0.0000 C   0  0  0  0  0  0  0  0  0
    7.7768    0.0261    0.0000 C   0  0  0  0  0  0  0  0  0
    8.4913   -0.3864    0.0000 C   0  0  0  0  0  0  0  0  0
    8.4913   -1.2114    0.0000 C   0  0  0  0  0  0  0  0  0
    7.7768   -1.6239    0.0000 N   0  0  0  0  0  0  0  0  0
    7.0623   -1.2114    0.0000 C   0  0  0  0  0  0  0  0  0
    6.2777   -1.4663    0.0000 N   0  0  0  0  0  0  0  0  0
    5.7928   -0.7989    0.0000 C   0  0  0  0  0  0  0  0  0
    2.3294   -0.1905    0.0000 C   0  0  0  0  0  0  0  0  0
    1.5279   -0.3861    0.0000 C   0  0  0  0  0  0  0  0  0
  1  2  1  0  0  0  0
  2  3  4  0  0  0  0
  2 24  4  0  0  0  0
  3  4  4  0  0  0  0
  4  5  4  0  0  0  0
  5  6  1  0  0  0  0
  5 23  4  0  0  0  0
  6  7  1  0  0  0  0
  6 12  1  0  0  0  0
  7  8  1  0  0  0  0
  8  9  1  0  0  0  0
  9 10  1  0  0  0  0
 10 11  1  0  0  0  0
 10 13  1  0  0  0  0
 11 12  1  0  0  0  0
 13 14  1  0  0  0  0
 14 15  4  0  0  0  0
 14 22  4  0  0  0  0
 15 16  4  0  0  0  0
 15 20  4  0  0  0  0
 16 17  4  0  0  0  0
 17 18  4  0  0  0  0
 18 19  4  0  0  0  0
 19 20  4  0  0  0  0
 20 21  4  0  0  0  0
 21 22  4  0  0  0  0
 23 24  4  0  0  0  0
M  STY  1   1 DAT
M  SAL   1  1  21
M  SDT   1 MRV_IMPLICIT_H                                        
M  SDD   1     0.0000    0.0000    DR    ALL  0       0  
M  SED   1 IMPL_H1
M  END
>  <Name_Molregno>
519025

>  <DOPAMINE D2>
6.01

>  <DOPAMINE D3>
6.43

>  <DOPAMINE D4>
7.73

$$$$
519088
  Marvin  02231216192D 0   1.00000     0.00000     0

 26 29  0  0  1  0  0  0  0  0999 V2000
    9.1531   -1.8689    0.0000 Cl  0  0  0  0  0  0  0  0  0
    8.3339   -1.7707    0.0000 C   0  0  0  0  0  0  0  0  0
    7.8393   -2.4309    0.0000 C   0  0  0  0  0  0  0  0  0
    7.0201   -2.3327    0.0000 C   0  0  0  0  0  0  0  0  0
    6.6957   -1.5742    0.0000 C   0  0  0  0  0  0  0  0  0
    7.1903   -0.9139    0.0000 C   0  0  0  0  0  0  0  0  0
    8.0094   -1.0122    0.0000 C   0  0  0  0  0  0  0  0  0
    5.8765   -1.4760    0.0000 C   0  0  0  0  0  0  0  0  0
    5.5505   -2.2338    0.0000 O   0  0  0  0  0  0  0  0  0
    5.7383   -0.6586    0.0000 C   0  0  0  0  0  0  0  0  0
    4.8095   -0.6741    0.0000 C   0  0  0  0  0  0  0  0  0
    4.2489   -0.2342    0.0000 N   0  0  0  0  0  0  0  0  0
    4.3886   -1.0473    0.0000 C   0  0  0  0  0  0  0  0  0
    5.3603   -1.0473    0.0000 C   0  0  0  0  0  0  0  0  0
    3.8687   -1.7596    0.0000 C   0  0  0  0  0  0  0  0  0
    4.4890   -1.3827    0.0000 C   0  0  0  0  0  0  0  0  0
    3.8263    0.4744    0.0000 C   0  0  0  0  0  0  0  0  0
    3.0014    0.4627    0.0000 C   0  0  0  0  0  0  0  0  0
    2.5991   -0.2576    0.0000 O   0  0  0  0  0  0  0  0  0
    2.5788    1.1712    0.0000 C   0  0  0  0  0  0  0  0  0
    1.7539    1.1595    0.0000 C   0  0  0  0  0  0  0  0  0
    1.3313    1.8680    0.0000 C   0  0  0  0  0  0  0  0  0
    1.7336    2.5883    0.0000 C   0  0  0  0  0  0  0  0  0
    1.3110    3.2968    0.0000 F   0  0  0  0  0  0  0  0  0
    2.5585    2.6000    0.0000 C   0  0  0  0  0  0  0  0  0
    2.9811    1.8915    0.0000 C   0  0  0  0  0  0  0  0  0
  1  2  1  0  0  0  0
  2  3  4  0  0  0  0
  2  7  4  0  0  0  0
  3  4  4  0  0  0  0
  4  5  4  0  0  0  0
  5  6  4  0  0  0  0
  5  8  1  0  0  0  0
  6  7  4  0  0  0  0
  8  9  1  0  0  0  0
  8 10  1  0  0  0  0
  8 14  1  0  0  0  0
 10 11  1  0  0  0  0
 11 12  1  0  0  0  0
 11 16  1  0  0  0  0
 12 13  1  0  0  0  0
 12 17  1  0  0  0  0
 13 14  1  0  0  0  0
 13 15  1  0  0  0  0
 15 16  1  0  0  0  0
 17 18  1  0  0  0  0
 18 19  2  0  0  0  0
 18 20  1  0  0  0  0
 20 21  4  0  0  0  0
 20 26  4  0  0  0  0
 21 22  4  0  0  0  0
 22 23  4  0  0  0  0
 23 24  1  0  0  0  0
 23 25  4  0  0  0  0
 25 26  4  0  0  0  0
M  END
>  <Name_Molregno>
519088

>  <DOPAMINE D2>
5.91

>  <DOPAMINE D3>
5

>  <DOPAMINE D4>
6.1

$$$$
519089
  Marvin  02231216192D 0   1.00000     0.00000     0

 24 27  0  0  1  0  0  0  0  0999 V2000
    7.8864   -1.3354    0.0000 Cl  0  0  0  0  0  0  0  0  0
    7.0673   -1.2372    0.0000 C   0  0  0  0  0  0  0  0  0
    6.5726   -1.8974    0.0000 C   0  0  0  0  0  0  0  0  0
    5.7535   -1.7992    0.0000 C   0  0  0  0  0  0  0  0  0
    5.4290   -1.0407    0.0000 C   0  0  0  0  0  0  0  0  0
    5.9237   -0.3804    0.0000 C   0  0  0  0  0  0  0  0  0
    6.7428   -0.4787    0.0000 C   0  0  0  0  0  0  0  0  0
    4.6099   -0.9425    0.0000 C   0  0  0  0  0  0  0  0  0
    4.2839   -1.7003    0.0000 O   0  0  0  0  0  0  0  0  0
    4.4717   -0.1251    0.0000 C   0  0  0  0  0  0  0  0  0
    3.5429   -0.1406    0.0000 C   0  0  0  0  0  0  0  0  0
    2.9823    0.2993    0.0000 N   0  0  0  0  0  0  0  0  0
    3.1220   -0.5138    0.0000 C   0  0  0  0  0  0  0  0  0
    4.0937   -0.5138    0.0000 C   0  0  0  0  0  0  0  0  0
    2.6021   -1.2261    0.0000 C   0  0  0  0  0  0  0  0  0
    3.2224   -0.8492    0.0000 C   0  0  0  0  0  0  0  0  0
    2.5597    1.0079    0.0000 C   0  0  0  0  0  0  0  0  0
    2.9620    1.7281    0.0000 C   0  0  0  0  0  0  0  0  0
    2.5394    2.4367    0.0000 C   0  0  0  0  0  0  0  0  0
    2.9417    3.1569    0.0000 C   0  0  0  0  0  0  0  0  0
    3.7666    3.1687    0.0000 C   0  0  0  0  0  0  0  0  0
    4.1689    3.8889    0.0000 F   0  0  0  0  0  0  0  0  0
    4.1892    2.4601    0.0000 C   0  0  0  0  0  0  0  0  0
    3.7869    1.7399    0.0000 C   0  0  0  0  0  0  0  0  0
  1  2  1  0  0  0  0
  2  3  4  0  0  0  0
  2  7  4  0  0  0  0
  3  4  4  0  0  0  0
  4  5  4  0  0  0  0
  5  6  4  0  0  0  0
  5  8  1  0  0  0  0
  6  7  4  0  0  0  0
  8  9  1  0  0  0  0
  8 10  1  0  0  0  0
  8 14  1  0  0  0  0
 10 11  1  0  0  0  0
 11 12  1  0  0  0  0
 11 16  1  0  0  0  0
 12 13  1  0  0  0  0
 12 17  1  0  0  0  0
 13 14  1  0  0  0  0
 13 15  1  0  0  0  0
 15 16  1  0  0  0  0
 17 18  1  0  0  0  0
 18 19  4  0  0  0  0
 18 24  4  0  0  0  0
 19 20  4  0  0  0  0
 20 21  4  0  0  0  0
 21 22  1  0  0  0  0
 21 23  4  0  0  0  0
 23 24  4  0  0  0  0
M  END
>  <Name_Molregno>
519089

>  <DOPAMINE D2>
5.98

>  <DOPAMINE D3>
6.76

>  <DOPAMINE D4>
5.99

$$$$
519090
  Marvin  02231216192D 0   1.00000     0.00000     0

 26 30  0  0  1  0  0  0  0  0999 V2000
    7.9627   -3.0682    0.0000 Cl  0  0  0  0  0  0  0  0  0
    7.1858   -2.7908    0.0000 C   0  0  0  0  0  0  0  0  0
    6.5570   -3.3249    0.0000 C   0  0  0  0  0  0  0  0  0
    5.7801   -3.0474    0.0000 C   0  0  0  0  0  0  0  0  0
    5.6319   -2.2358    0.0000 C   0  0  0  0  0  0  0  0  0
    6.2606   -1.7017    0.0000 C   0  0  0  0  0  0  0  0  0
    7.0376   -1.9792    0.0000 C   0  0  0  0  0  0  0  0  0
    4.8549   -1.9584    0.0000 C   0  0  0  0  0  0  0  0  0
    4.3690   -2.6251    0.0000 O   0  0  0  0  0  0  0  0  0
    4.9015   -1.1307    0.0000 C   0  0  0  0  0  0  0  0  0
    3.9924   -0.9398    0.0000 C   0  0  0  0  0  0  0  0  0
    3.5433   -0.3865    0.0000 N   0  0  0  0  0  0  0  0  0
    3.4992   -1.2104    0.0000 C   0  0  0  0  0  0  0  0  0
    4.4467   -1.4259    0.0000 C   0  0  0  0  0  0  0  0  0
    2.8342   -1.7896    0.0000 C   0  0  0  0  0  0  0  0  0
    3.5227   -1.5597    0.0000 C   0  0  0  0  0  0  0  0  0
    3.2883    0.3981    0.0000 C   0  0  0  0  0  0  0  0  0
    3.8404    1.0112    0.0000 C   0  0  0  0  0  0  0  0  0
    3.6689    1.8182    0.0000 C   0  0  0  0  0  0  0  0  0
    2.9544    2.2307    0.0000 C   0  0  0  0  0  0  0  0  0
    2.9544    3.0557    0.0000 C   0  0  0  0  0  0  0  0  0
    3.6689    3.4682    0.0000 C   0  0  0  0  0  0  0  0  0
    4.3833    3.0557    0.0000 N   0  0  0  0  0  0  0  0  0
    4.3833    2.2307    0.0000 C   0  0  0  0  0  0  0  0  0
    4.9964    1.6786    0.0000 N   0  0  0  0  0  0  0  0  0
    4.6609    0.9250    0.0000 C   0  0  0  0  0  0  0  0  0
  1  2  1  0  0  0  0
  2  3  4  0  0  0  0
  2  7  4  0  0  0  0
  3  4  4  0  0  0  0
  4  5  4  0  0  0  0
  5  6  4  0  0  0  0
  5  8  1  0  0  0  0
  6  7  4  0  0  0  0
  8  9  1  0  0  0  0
  8 10  1  0  0  0  0
  8 14  1  0  0  0  0
 10 11  1  0  0  0  0
 11 12  1  0  0  0  0
 11 16  1  0  0  0  0
 12 13  1  0  0  0  0
 12 17  1  0  0  0  0
 13 14  1  0  0  0  0
 13 15  1  0  0  0  0
 15 16  1  0  0  0  0
 17 18  1  0  0  0  0
 18 19  4  0  0  0  0
 18 26  4  0  0  0  0
 19 20  4  0  0  0  0
 19 24  4  0  0  0  0
 20 21  4  0  0  0  0
 21 22  4  0  0  0  0
 22 23  4  0  0  0  0
 23 24  4  0  0  0  0
 24 25  4  0  0  0  0
 25 26  4  0  0  0  0
M  STY  1   1 DAT
M  SAL   1  1  25
M  SDT   1 MRV_IMPLICIT_H                                        
M  SDD   1     0.0000    0.0000    DR    ALL  0       0  
M  SED   1 IMPL_H1
M  END
>  <Name_Molregno>
519090

>  <DOPAMINE D2>
6.23

>  <DOPAMINE D3>
6.89

>  <DOPAMINE D4>
5.1

$$$$
519092
  Marvin  02231216192D 0   1.00000     0.00000     0

 26 30  0  0  1  0  0  0  0  0999 V2000
    2.9420   -4.6948    0.0000 Cl  0  0  0  0  0  0  0  0  0
    3.1480   -3.8960    0.0000 C   0  0  0  0  0  0  0  0  0
    2.5592   -3.3181    0.0000 C   0  0  0  0  0  0  0  0  0
    2.7652   -2.5192    0.0000 C   0  0  0  0  0  0  0  0  0
    3.5600   -2.2982    0.0000 C   0  0  0  0  0  0  0  0  0
    3.7661   -1.4994    0.0000 N   0  0  0  0  0  0  0  0  0
    4.5960   -1.3315    0.0000 C   0  0  0  0  0  0  0  0  0
    5.0417   -0.8345    0.0000 C   0  0  0  0  0  0  0  0  0
    4.4983    0.2994    0.0000 N   0  0  0  0  0  0  0  0  0
    4.6442   -0.4961    0.0000 C   0  0  0  0  0  0  0  0  0
    5.5532   -0.4692    0.0000 C   0  0  0  0  0  0  0  0  0
    5.9654   -0.8617    0.0000 C   0  0  0  0  0  0  0  0  0
    3.8203   -0.6659    0.0000 C   0  0  0  0  0  0  0  0  0
    3.3726   -1.1651    0.0000 C   0  0  0  0  0  0  0  0  0
    4.2434    1.0840    0.0000 C   0  0  0  0  0  0  0  0  0
    4.7954    1.6971    0.0000 C   0  0  0  0  0  0  0  0  0
    4.6239    2.5041    0.0000 C   0  0  0  0  0  0  0  0  0
    3.9094    2.9166    0.0000 C   0  0  0  0  0  0  0  0  0
    3.9094    3.7416    0.0000 C   0  0  0  0  0  0  0  0  0
    4.6239    4.1541    0.0000 C   0  0  0  0  0  0  0  0  0
    5.3383    3.7416    0.0000 N   0  0  0  0  0  0  0  0  0
    5.3383    2.9166    0.0000 C   0  0  0  0  0  0  0  0  0
    5.9514    2.3646    0.0000 N   0  0  0  0  0  0  0  0  0
    5.6159    1.6109    0.0000 C   0  0  0  0  0  0  0  0  0
    4.1489   -2.8761    0.0000 C   0  0  0  0  0  0  0  0  0
    3.9428   -3.6750    0.0000 C   0  0  0  0  0  0  0  0  0
  1  2  1  0  0  0  0
  2  3  4  0  0  0  0
  2 26  4  0  0  0  0
  3  4  4  0  0  0  0
  4  5  4  0  0  0  0
  5  6  1  0  0  0  0
  5 25  4  0  0  0  0
  6  7  1  0  0  0  0
  6 14  1  0  0  0  0
  7  8  1  0  0  0  0
  8  9  1  0  0  0  0
  8 12  1  0  0  0  0
  9 10  1  0  0  0  0
  9 15  1  0  0  0  0
 10 11  1  0  0  0  0
 10 13  1  0  0  0  0
 11 12  1  0  0  0  0
 13 14  1  0  0  0  0
 15 16  1  0  0  0  0
 16 17  4  0  0  0  0
 16 24  4  0  0  0  0
 17 18  4  0  0  0  0
 17 22  4  0  0  0  0
 18 19  4  0  0  0  0
 19 20  4  0  0  0  0
 20 21  4  0  0  0  0
 21 22  4  0  0  0  0
 22 23  4  0  0  0  0
 23 24  4  0  0  0  0
 25 26  4  0  0  0  0
M  STY  1   1 DAT
M  SAL   1  1  23
M  SDT   1 MRV_IMPLICIT_H                                        
M  SDD   1     0.0000    0.0000    DR    ALL  0       0  
M  SED   1 IMPL_H1
M  END
>  <Name_Molregno>
519092

>  <DOPAMINE D2>
5

>  <DOPAMINE D3>
6.47

>  <DOPAMINE D4>
6.23

$$$$
519093
  Marvin  02231216192D 0   1.00000     0.00000     0

 26 29  0  0  1  0  0  0  0  0999 V2000
    0.7444   -2.0912    0.0000 Cl  0  0  0  0  0  0  0  0  0
    1.3390   -1.5193    0.0000 C   0  0  0  0  0  0  0  0  0
    1.1411   -0.7184    0.0000 C   0  0  0  0  0  0  0  0  0
    1.7357   -0.1465    0.0000 C   0  0  0  0  0  0  0  0  0
    2.5283   -0.3755    0.0000 C   0  0  0  0  0  0  0  0  0
    3.1229    0.1964    0.0000 N   0  0  0  0  0  0  0  0  0
    3.8984    0.5867    0.0000 C   0  0  0  0  0  0  0  0  0
    4.6289    0.2164    0.0000 N   0  0  0  0  0  0  0  0  0
    4.9240    0.8418    0.0000 C   0  0  0  0  0  0  0  0  0
    4.1285    1.3071    0.0000 C   0  0  0  0  0  0  0  0  0
    3.9685    2.1225    0.0000 C   0  0  0  0  0  0  0  0  0
    3.4882    0.8569    0.0000 C   0  0  0  0  0  0  0  0  0
    4.8965   -0.5640    0.0000 C   0  0  0  0  0  0  0  0  0
    5.7061   -0.7224    0.0000 C   0  0  0  0  0  0  0  0  0
    5.9738   -1.5028    0.0000 C   0  0  0  0  0  0  0  0  0
    6.7834   -1.6612    0.0000 C   0  0  0  0  0  0  0  0  0
    7.3254   -1.0392    0.0000 O   0  0  0  0  0  0  0  0  0
    7.0510   -2.4416    0.0000 C   0  0  0  0  0  0  0  0  0
    7.8607   -2.6000    0.0000 C   0  0  0  0  0  0  0  0  0
    8.1283   -3.3804    0.0000 C   0  0  0  0  0  0  0  0  0
    7.5863   -4.0023    0.0000 C   0  0  0  0  0  0  0  0  0
    7.8539   -4.7827    0.0000 F   0  0  0  0  0  0  0  0  0
    6.7766   -3.8439    0.0000 C   0  0  0  0  0  0  0  0  0
    6.5090   -3.0635    0.0000 C   0  0  0  0  0  0  0  0  0
    2.7262   -1.1764    0.0000 C   0  0  0  0  0  0  0  0  0
    2.1316   -1.7483    0.0000 C   0  0  0  0  0  0  0  0  0
  1  2  1  0  0  0  0
  2  3  4  0  0  0  0
  2 26  4  0  0  0  0
  3  4  4  0  0  0  0
  4  5  4  0  0  0  0
  5  6  1  0  0  0  0
  5 25  4  0  0  0  0
  6  7  1  0  0  0  0
  6 12  1  0  0  0  0
  7  8  1  0  0  0  0
  7 11  1  0  0  0  0
  8  9  1  0  0  0  0
  8 13  1  0  0  0  0
  9 10  1  0  0  0  0
 10 11  1  0  0  0  0
 10 12  1  0  0  0  0
 13 14  1  0  0  0  0
 14 15  1  0  0  0  0
 15 16  1  0  0  0  0
 16 17  2  0  0  0  0
 16 18  1  0  0  0  0
 18 19  4  0  0  0  0
 18 24  4  0  0  0  0
 19 20  4  0  0  0  0
 20 21  4  0  0  0  0
 21 22  1  0  0  0  0
 21 23  4  0  0  0  0
 23 24  4  0  0  0  0
 25 26  4  0  0  0  0
M  END
>  <Name_Molregno>
519093

>  <DOPAMINE D2>
6.77

>  <DOPAMINE D3>
6.66

>  <DOPAMINE D4>
6.29

$$$$
519094
  Marvin  02231216192D 0   1.00000     0.00000     0

 24 28  0  0  1  0  0  0  0  0999 V2000
    6.8575   -3.9994    0.0000 Cl  0  0  0  0  0  0  0  0  0
    6.2775   -3.4127    0.0000 C   0  0  0  0  0  0  0  0  0
    5.4794   -3.6218    0.0000 C   0  0  0  0  0  0  0  0  0
    4.8993   -3.0351    0.0000 C   0  0  0  0  0  0  0  0  0
    5.1173   -2.2394    0.0000 C   0  0  0  0  0  0  0  0  0
    4.5373   -1.6528    0.0000 N   0  0  0  0  0  0  0  0  0
    4.1363   -0.8828    0.0000 C   0  0  0  0  0  0  0  0  0
    2.5996   -0.8339    0.0000 C   0  0  0  0  0  0  0  0  0
    3.4128   -0.6627    0.0000 C   0  0  0  0  0  0  0  0  0
    3.8670    0.1392    0.0000 N   0  0  0  0  0  0  0  0  0
    4.4964   -0.1472    0.0000 C   0  0  0  0  0  0  0  0  0
    3.6121    0.9238    0.0000 C   0  0  0  0  0  0  0  0  0
    4.1641    1.5369    0.0000 C   0  0  0  0  0  0  0  0  0
    3.9926    2.3439    0.0000 C   0  0  0  0  0  0  0  0  0
    3.2781    2.7564    0.0000 C   0  0  0  0  0  0  0  0  0
    3.2781    3.5814    0.0000 C   0  0  0  0  0  0  0  0  0
    3.9926    3.9939    0.0000 C   0  0  0  0  0  0  0  0  0
    4.7070    3.5814    0.0000 N   0  0  0  0  0  0  0  0  0
    4.7070    2.7564    0.0000 C   0  0  0  0  0  0  0  0  0
    5.3201    2.2044    0.0000 N   0  0  0  0  0  0  0  0  0
    4.9846    1.4507    0.0000 C   0  0  0  0  0  0  0  0  0
    3.8718   -1.2967    0.0000 C   0  0  0  0  0  0  0  0  0
    5.9154   -2.0304    0.0000 C   0  0  0  0  0  0  0  0  0
    6.4955   -2.6170    0.0000 C   0  0  0  0  0  0  0  0  0
  1  2  1  0  0  0  0
  2  3  4  0  0  0  0
  2 24  4  0  0  0  0
  3  4  4  0  0  0  0
  4  5  4  0  0  0  0
  5  6  1  0  0  0  0
  5 23  4  0  0  0  0
  6  7  1  0  0  0  0
  6 22  1  0  0  0  0
  7  8  1  0  0  0  0
  7 11  1  0  0  0  0
  8  9  1  0  0  0  0
  9 10  1  0  0  0  0
  9 22  1  0  0  0  0
 10 11  1  0  0  0  0
 10 12  1  0  0  0  0
 12 13  1  0  0  0  0
 13 14  4  0  0  0  0
 13 21  4  0  0  0  0
 14 15  4  0  0  0  0
 14 19  4  0  0  0  0
 15 16  4  0  0  0  0
 16 17  4  0  0  0  0
 17 18  4  0  0  0  0
 18 19  4  0  0  0  0
 19 20  4  0  0  0  0
 20 21  4  0  0  0  0
 23 24  4  0  0  0  0
M  STY  1   1 DAT
M  SAL   1  1  20
M  SDT   1 MRV_IMPLICIT_H                                        
M  SDD   1     0.0000    0.0000    DR    ALL  0       0  
M  SED   1 IMPL_H1
M  END
>  <Name_Molregno>
519094

>  <DOPAMINE D2>
7.21

>  <DOPAMINE D3>
7.96

>  <DOPAMINE D4>
7.16

$$$$
519095
  Marvin  02231216192D 0   1.00000     0.00000     0

 23 26  0  0  1  0  0  0  0  0999 V2000
    0.1665    1.8903    0.0000 Cl  0  0  0  0  0  0  0  0  0
    0.9511    1.6354    0.0000 C   0  0  0  0  0  0  0  0  0
    1.5642    2.1874    0.0000 C   0  0  0  0  0  0  0  0  0
    2.3488    1.9325    0.0000 C   0  0  0  0  0  0  0  0  0
    2.5203    1.1255    0.0000 C   0  0  0  0  0  0  0  0  0
    1.9073    0.5735    0.0000 C   0  0  0  0  0  0  0  0  0
    1.1226    0.8284    0.0000 C   0  0  0  0  0  0  0  0  0
    3.3050    0.8705    0.0000 C   0  0  0  0  0  0  0  0  0
    2.9694    0.1169    0.0000 O   0  0  0  0  0  0  0  0  0
    3.4765    1.6775    0.0000 C   0  0  0  0  0  0  0  0  0
    4.2970    1.7638    0.0000 C   0  0  0  0  0  0  0  0  0
    4.6325    1.0101    0.0000 N   0  0  0  0  0  0  0  0  0
    4.0194    0.4580    0.0000 C   0  0  0  0  0  0  0  0  0
    5.4395    0.8386    0.0000 C   0  0  0  0  0  0  0  0  0
    5.6944    0.0539    0.0000 C   0  0  0  0  0  0  0  0  0
    6.4791   -0.2010    0.0000 C   0  0  0  0  0  0  0  0  0
    7.1935    0.2115    0.0000 C   0  0  0  0  0  0  0  0  0
    7.9080   -0.2010    0.0000 C   0  0  0  0  0  0  0  0  0
    7.9080   -1.0260    0.0000 C   0  0  0  0  0  0  0  0  0
    7.1935   -1.4385    0.0000 N   0  0  0  0  0  0  0  0  0
    6.4791   -1.0260    0.0000 C   0  0  0  0  0  0  0  0  0
    5.6944   -1.2809    0.0000 N   0  0  0  0  0  0  0  0  0
    5.2095   -0.6135    0.0000 C   0  0  0  0  0  0  0  0  0
  1  2  1  0  0  0  0
  2  3  4  0  0  0  0
  2  7  4  0  0  0  0
  3  4  4  0  0  0  0
  4  5  4  0  0  0  0
  5  6  4  0  0  0  0
  5  8  1  0  0  0  0
  6  7  4  0  0  0  0
  8  9  1  0  0  0  0
  8 10  1  0  0  0  0
  8 13  1  0  0  0  0
 10 11  1  0  0  0  0
 11 12  1  0  0  0  0
 12 13  1  0  0  0  0
 12 14  1  0  0  0  0
 14 15  1  0  0  0  0
 15 16  4  0  0  0  0
 15 23  4  0  0  0  0
 16 17  4  0  0  0  0
 16 21  4  0  0  0  0
 17 18  4  0  0  0  0
 18 19  4  0  0  0  0
 19 20  4  0  0  0  0
 20 21  4  0  0  0  0
 21 22  4  0  0  0  0
 22 23  4  0  0  0  0
M  STY  1   1 DAT
M  SAL   1  1  22
M  SDT   1 MRV_IMPLICIT_H                                        
M  SDD   1     0.0000    0.0000    DR    ALL  0       0  
M  SED   1 IMPL_H1
M  END
>  <Name_Molregno>
519095

>  <DOPAMINE D4>
5.92

$$$$
522392
  Marvin  02231216192D 0   1.00000     0.00000     0

 30 34  0  0  1  0  0  0  0  0999 V2000
   -2.3312   -2.9228    0.0000 S   0  0  0  0  0  0  0  0  0
   -2.4251   -2.1031    0.0000 O   0  0  0  0  0  0  0  0  0
   -1.5276   -2.7362    0.0000 O   0  0  0  0  0  0  0  0  0
   -3.1562   -2.9228    0.0000 N   0  0  0  0  0  0  0  0  0
   -3.4562   -3.7799    0.0000 C   0  0  0  0  0  0  0  0  0
   -2.7437   -4.1924    0.0000 C   0  0  0  0  0  0  0  0  0
   -2.7437   -5.0174    0.0000 C   0  0  0  0  0  0  0  0  0
   -3.4562   -5.4299    0.0000 C   0  0  0  0  0  0  0  0  0
   -4.1687   -5.0174    0.0000 C   0  0  0  0  0  0  0  0  0
   -4.1687   -4.1924    0.0000 C   0  0  0  0  0  0  0  0  0
   -2.0258   -5.4299    0.0000 C   0  0  0  0  0  0  0  0  0
   -1.3133   -5.0174    0.0000 C   0  0  0  0  0  0  0  0  0
   -1.3133   -4.1924    0.0000 C   0  0  0  0  0  0  0  0  0
   -2.0258   -3.7799    0.0000 C   0  0  0  0  0  0  0  0  0
   -3.6336   -2.2499    0.0000 C   0  0  0  0  0  0  0  0  0
   -3.2895   -1.5001    0.0000 C   0  0  0  0  0  0  0  0  0
   -3.7669   -0.8272    0.0000 C   0  0  0  0  0  0  0  0  0
   -3.4229   -0.0774    0.0000 N   0  0  0  0  0  0  0  0  0
   -3.9003    0.5955    0.0000 C   0  0  0  0  0  0  0  0  0
   -3.5562    1.3453    0.0000 C   0  0  0  0  0  0  0  0  0
   -2.7348    1.4223    0.0000 N   0  0  0  0  0  0  0  0  0
   -2.2575    0.7495    0.0000 C   0  0  0  0  0  0  0  0  0
   -2.6015   -0.0004    0.0000 C   0  0  0  0  0  0  0  0  0
   -2.3908    2.1722    0.0000 C   0  0  0  0  0  0  0  0  0
   -2.8682    2.8450    0.0000 C   0  0  0  0  0  0  0  0  0
   -2.5242    3.5949    0.0000 C   0  0  0  0  0  0  0  0  0
   -1.7028    3.6719    0.0000 C   0  0  0  0  0  0  0  0  0
   -1.3588    4.4217    0.0000 F   0  0  0  0  0  0  0  0  0
   -1.2254    2.9990    0.0000 C   0  0  0  0  0  0  0  0  0
   -1.5694    2.2492    0.0000 C   0  0  0  0  0  0  0  0  0
  1  2  2  0  0  0  0
  1  3  2  0  0  0  0
  1  4  1  0  0  0  0
  1 14  1  0  0  0  0
  4  5  1  0  0  0  0
  4 15  1  0  0  0  0
  5  6  1  0  0  0  0
  5 10  1  0  0  0  0
  6  7  1  0  0  0  0
  6 14  1  0  0  0  0
  7  8  2  0  0  0  0
  7 11  1  0  0  0  0
  8  9  1  0  0  0  0
  9 10  2  0  0  0  0
 11 12  2  0  0  0  0
 12 13  1  0  0  0  0
 13 14  2  0  0  0  0
 15 16  1  0  0  0  0
 16 17  1  0  0  0  0
 17 18  1  0  0  0  0
 18 19  1  0  0  0  0
 18 23  1  0  0  0  0
 19 20  1  0  0  0  0
 20 21  1  0  0  0  0
 21 22  1  0  0  0  0
 21 24  1  0  0  0  0
 22 23  1  0  0  0  0
 24 25  4  0  0  0  0
 24 30  4  0  0  0  0
 25 26  4  0  0  0  0
 26 27  4  0  0  0  0
 27 28  1  0  0  0  0
 27 29  4  0  0  0  0
 29 30  4  0  0  0  0
M  END
>  <Name_Molregno>
522392

>  <5-HT2A>
9.92

>  <DOPAMINE D4>
8.54

$$$$
545674
  Marvin  02231216192D 0   1.00000     0.00000     0

 32 36  0  0  0  0  0  0  0  0999 V2000
   -0.4693    1.2573    0.0000 O   0  0  0  0  0  0  0  0  0
    0.2452    0.8448    0.0000 C   0  0  0  0  0  0  0  0  0
    0.9597    1.2573    0.0000 C   0  0  0  0  0  0  0  0  0
    0.9597    2.0823    0.0000 N   0  0  0  0  0  0  0  0  0
    0.2452    2.4948    0.0000 C   0  0  0  0  0  0  0  0  0
   -0.4693    2.0823    0.0000 C   0  0  0  0  0  0  0  0  0
   -1.1837    2.4948    0.0000 C   0  0  0  0  0  0  0  0  0
   -1.1837    3.3198    0.0000 C   0  0  0  0  0  0  0  0  0
   -0.4693    3.7323    0.0000 C   0  0  0  0  0  0  0  0  0
    0.2452    3.3198    0.0000 C   0  0  0  0  0  0  0  0  0
    1.6742    0.8448    0.0000 N   0  0  0  0  0  0  0  0  0
    2.3886    1.2573    0.0000 C   0  0  0  0  0  0  0  0  0
    3.1031    0.8448    0.0000 C   0  0  0  0  0  0  0  0  0
    3.8176    1.2573    0.0000 C   0  0  0  0  0  0  0  0  0
    4.5320    0.8448    0.0000 C   0  0  0  0  0  0  0  0  0
    5.2465    1.2573    0.0000 C   0  0  0  0  0  0  0  0  0
    5.9610    0.8448    0.0000 N   0  0  0  0  0  0  0  0  0
    6.6755    1.2573    0.0000 C   0  0  0  0  0  0  0  0  0
    7.3899    0.8448    0.0000 C   0  0  0  0  0  0  0  0  0
    7.3899    0.0198    0.0000 N   0  0  0  0  0  0  0  0  0
    6.6755   -0.3927    0.0000 C   0  0  0  0  0  0  0  0  0
    5.9610    0.0198    0.0000 C   0  0  0  0  0  0  0  0  0
    8.1044   -0.3927    0.0000 C   0  0  0  0  0  0  0  0  0
    8.1044   -1.2177    0.0000 N   0  0  0  0  0  0  0  0  0
    8.8189   -1.6302    0.0000 C   0  0  0  0  0  0  0  0  0
    9.5333   -1.2177    0.0000 C   0  0  0  0  0  0  0  0  0
    9.5333   -0.3927    0.0000 C   0  0  0  0  0  0  0  0  0
    8.8189    0.0198    0.0000 C   0  0  0  0  0  0  0  0  0
   10.2478   -1.6302    0.0000 C   0  0  0  0  0  0  0  0  0
   10.2478   -2.4552    0.0000 C   0  0  0  0  0  0  0  0  0
    9.5333   -2.8677    0.0000 C   0  0  0  0  0  0  0  0  0
    8.8189   -2.4552    0.0000 C   0  0  0  0  0  0  0  0  0
  1  2  1  0  0  0  0
  1  6  1  0  0  0  0
  2  3  1  0  0  0  0
  3  4  2  0  0  0  0
  3 11  1  0  0  0  0
  4  5  1  0  0  0  0
  5  6  4  0  0  0  0
  5 10  4  0  0  0  0
  6  7  4  0  0  0  0
  7  8  4  0  0  0  0
  8  9  4  0  0  0  0
  9 10  4  0  0  0  0
 11 12  1  0  0  0  0
 12 13  1  0  0  0  0
 13 14  1  0  0  0  0
 14 15  1  0  0  0  0
 15 16  1  0  0  0  0
 16 17  1  0  0  0  0
 17 18  1  0  0  0  0
 17 22  1  0  0  0  0
 18 19  1  0  0  0  0
 19 20  1  0  0  0  0
 20 21  1  0  0  0  0
 20 23  1  0  0  0  0
 21 22  1  0  0  0  0
 23 24  4  0  0  0  0
 23 28  4  0  0  0  0
 24 25  4  0  0  0  0
 25 26  4  0  0  0  0
 25 32  4  0  0  0  0
 26 27  4  0  0  0  0
 26 29  4  0  0  0  0
 27 28  4  0  0  0  0
 29 30  4  0  0  0  0
 30 31  4  0  0  0  0
 31 32  4  0  0  0  0
M  END
>  <Name_Molregno>
545674

>  <DOPAMINE D4>
6.9

$$$$
551459
  Marvin  02231216192D 0   1.00000     0.00000     0

 28 31  0  0  0  0  0  0  0  0999 V2000
   -0.5594    0.5963    0.0000 O   0  0  0  0  0  0  0  0  0
    0.1550    0.1838    0.0000 C   0  0  0  0  0  0  0  0  0
    0.8695    0.5963    0.0000 C   0  0  0  0  0  0  0  0  0
    0.8695    1.4213    0.0000 N   0  0  0  0  0  0  0  0  0
    0.1550    1.8338    0.0000 C   0  0  0  0  0  0  0  0  0
   -0.5594    1.4213    0.0000 C   0  0  0  0  0  0  0  0  0
   -1.2739    1.8338    0.0000 C   0  0  0  0  0  0  0  0  0
   -1.2739    2.6588    0.0000 C   0  0  0  0  0  0  0  0  0
   -0.5594    3.0713    0.0000 C   0  0  0  0  0  0  0  0  0
    0.1550    2.6588    0.0000 C   0  0  0  0  0  0  0  0  0
    1.5840    0.1838    0.0000 N   0  0  0  0  0  0  0  0  0
    2.2985    0.5963    0.0000 C   0  0  0  0  0  0  0  0  0
    3.0129    0.1838    0.0000 C   0  0  0  0  0  0  0  0  0
    3.7274    0.5963    0.0000 C   0  0  0  0  0  0  0  0  0
    4.4419    0.1838    0.0000 C   0  0  0  0  0  0  0  0  0
    5.1563    0.5963    0.0000 C   0  0  0  0  0  0  0  0  0
    5.8708    0.1838    0.0000 N   0  0  0  0  0  0  0  0  0
    6.5853    0.5963    0.0000 C   0  0  0  0  0  0  0  0  0
    7.2998    0.1838    0.0000 C   0  0  0  0  0  0  0  0  0
    7.2998   -0.6412    0.0000 N   0  0  0  0  0  0  0  0  0
    6.5853   -1.0537    0.0000 C   0  0  0  0  0  0  0  0  0
    5.8708   -0.6412    0.0000 C   0  0  0  0  0  0  0  0  0
    8.0142   -1.0537    0.0000 C   0  0  0  0  0  0  0  0  0
    8.7287   -0.6412    0.0000 C   0  0  0  0  0  0  0  0  0
    9.4432   -1.0537    0.0000 C   0  0  0  0  0  0  0  0  0
    9.4432   -1.8787    0.0000 C   0  0  0  0  0  0  0  0  0
    8.7287   -2.2912    0.0000 C   0  0  0  0  0  0  0  0  0
    8.0142   -1.8787    0.0000 C   0  0  0  0  0  0  0  0  0
  1  2  1  0  0  0  0
  1  6  1  0  0  0  0
  2  3  1  0  0  0  0
  3  4  2  0  0  0  0
  3 11  1  0  0  0  0
  4  5  1  0  0  0  0
  5  6  4  0  0  0  0
  5 10  4  0  0  0  0
  6  7  4  0  0  0  0
  7  8  4  0  0  0  0
  8  9  4  0  0  0  0
  9 10  4  0  0  0  0
 11 12  1  0  0  0  0
 12 13  1  0  0  0  0
 13 14  1  0  0  0  0
 14 15  1  0  0  0  0
 15 16  1  0  0  0  0
 16 17  1  0  0  0  0
 17 18  1  0  0  0  0
 17 22  1  0  0  0  0
 18 19  1  0  0  0  0
 19 20  1  0  0  0  0
 20 21  1  0  0  0  0
 20 23  1  0  0  0  0
 21 22  1  0  0  0  0
 23 24  4  0  0  0  0
 23 28  4  0  0  0  0
 24 25  4  0  0  0  0
 25 26  4  0  0  0  0
 26 27  4  0  0  0  0
 27 28  4  0  0  0  0
M  END
>  <Name_Molregno>
551459

>  <DOPAMINE D2>
7.03

>  <DOPAMINE D3>
6.78

>  <DOPAMINE D4>
7.28

$$$$
551501
  Marvin  02231216192D 0   1.00000     0.00000     0

 24 27  0  0  1  0  0  0  0  0999 V2000
    3.3142   -0.9352    0.0000 N   0  0  0  0  0  0  0  0  0
    3.0593   -1.7198    0.0000 C   0  0  0  0  0  0  0  0  0
    2.2343   -1.7198    0.0000 N   0  0  0  0  0  0  0  0  0
    1.9794   -0.9352    0.0000 C   0  0  0  0  0  0  0  0  0
    2.6468   -0.4503    0.0000 C   0  0  0  0  0  0  0  0  0
    2.6468    0.3747    0.0000 C   0  0  0  0  0  0  0  0  0
    1.9323    0.7872    0.0000 N   0  0  0  0  0  0  0  0  0
    1.2178    0.3747    0.0000 C   0  0  0  0  0  0  0  0  0
    0.5034    0.7872    0.0000 C   0  0  0  0  0  0  0  0  0
    0.5034    1.6122    0.0000 N   0  0  0  0  0  0  0  0  0
    1.2178    2.0247    0.0000 C   0  0  0  0  0  0  0  0  0
    1.9323    1.6122    0.0000 C   0  0  0  0  0  0  0  0  0
   -0.2111    2.0247    0.0000 C   0  0  0  0  0  0  0  0  0
   -0.9256    1.6122    0.0000 C   0  0  0  0  0  0  0  0  0
   -1.6400    2.0247    0.0000 C   0  0  0  0  0  0  0  0  0
   -1.6400    2.8497    0.0000 C   0  0  0  0  0  0  0  0  0
   -0.9256    3.2622    0.0000 C   0  0  0  0  0  0  0  0  0
   -0.2111    2.8497    0.0000 C   0  0  0  0  0  0  0  0  0
    3.5442   -2.3873    0.0000 C   0  0  0  0  0  0  0  0  0
    4.3647   -2.3010    0.0000 C   0  0  0  0  0  0  0  0  0
    4.8496   -2.9685    0.0000 C   0  0  0  0  0  0  0  0  0
    4.5141   -3.7222    0.0000 C   0  0  0  0  0  0  0  0  0
    3.6936   -3.8084    0.0000 C   0  0  0  0  0  0  0  0  0
    3.2087   -3.1410    0.0000 C   0  0  0  0  0  0  0  0  0
  1  2  1  0  0  0  0
  1  5  1  0  0  0  0
  2  3  2  0  0  0  0
  2 19  1  0  0  0  0
  3  4  1  0  0  0  0
  4  5  1  0  0  0  0
  5  6  1  0  0  0  0
  6  7  1  0  0  0  0
  7  8  1  0  0  0  0
  7 12  1  0  0  0  0
  8  9  1  0  0  0  0
  9 10  1  0  0  0  0
 10 11  1  0  0  0  0
 10 13  1  0  0  0  0
 11 12  1  0  0  0  0
 13 14  4  0  0  0  0
 13 18  4  0  0  0  0
 14 15  4  0  0  0  0
 15 16  4  0  0  0  0
 16 17  4  0  0  0  0
 17 18  4  0  0  0  0
 19 20  4  0  0  0  0
 19 24  4  0  0  0  0
 20 21  4  0  0  0  0
 21 22  4  0  0  0  0
 22 23  4  0  0  0  0
 23 24  4  0  0  0  0
M  END
>  <Name_Molregno>
551501

>  <DOPAMINE D2>
4.92

>  <DOPAMINE D3>
5.1

>  <DOPAMINE D4>
7.14

$$$$
557953
  Marvin  02231216192D 0   1.00000     0.00000     0

 29 32  0  0  0  0  0  0  0  0999 V2000
   -8.0455   -0.5938    0.0000 S   0  0  0  0  0  0  0  0  0
   -8.7599   -1.0063    0.0000 C   0  0  0  0  0  0  0  0  0
   -8.0455    0.2312    0.0000 C   0  0  0  0  0  0  0  0  0
   -8.7599    0.6437    0.0000 C   0  0  0  0  0  0  0  0  0
   -8.7599    1.4687    0.0000 C   0  0  0  0  0  0  0  0  0
   -8.0455    1.8812    0.0000 C   0  0  0  0  0  0  0  0  0
   -7.3310    1.4687    0.0000 C   0  0  0  0  0  0  0  0  0
   -7.3310    0.6437    0.0000 C   0  0  0  0  0  0  0  0  0
   -6.6165    0.2312    0.0000 N   0  0  0  0  0  0  0  0  0
   -5.9021    0.6437    0.0000 C   0  0  0  0  0  0  0  0  0
   -5.1876    0.2312    0.0000 C   0  0  0  0  0  0  0  0  0
   -5.1876   -0.5938    0.0000 N   0  0  0  0  0  0  0  0  0
   -5.9021   -1.0063    0.0000 C   0  0  0  0  0  0  0  0  0
   -6.6165   -0.5938    0.0000 C   0  0  0  0  0  0  0  0  0
   -4.4731   -1.0063    0.0000 C   0  0  0  0  0  0  0  0  0
   -3.7586   -0.5938    0.0000 C   0  0  0  0  0  0  0  0  0
   -3.0442   -1.0063    0.0000 C   0  0  0  0  0  0  0  0  0
   -2.3297   -0.5938    0.0000 N   0  0  0  0  0  0  0  0  0
   -1.6152   -1.0063    0.0000 C   0  0  0  0  0  0  0  0  0
   -1.6152   -1.8313    0.0000 O   0  0  0  0  0  0  0  0  0
   -0.9008   -0.5938    0.0000 C   0  0  0  0  0  0  0  0  0
   -0.1471   -0.9293    0.0000 C   0  0  0  0  0  0  0  0  0
    0.4049   -0.3162    0.0000 N   0  0  0  0  0  0  0  0  0
   -0.0076    0.3983    0.0000 N   0  0  0  0  0  0  0  0  0
   -0.8145    0.2267    0.0000 C   0  0  0  0  0  0  0  0  0
    1.2119   -0.4877    0.0000 C   0  0  0  0  0  0  0  0  0
    1.4669   -1.2724    0.0000 C   0  0  0  0  0  0  0  0  0
    0.9148   -1.8855    0.0000 C   0  0  0  0  0  0  0  0  0
    0.1079   -1.7139    0.0000 C   0  0  0  0  0  0  0  0  0
  1  2  1  0  0  0  0
  1  3  1  0  0  0  0
  3  4  4  0  0  0  0
  3  8  4  0  0  0  0
  4  5  4  0  0  0  0
  5  6  4  0  0  0  0
  6  7  4  0  0  0  0
  7  8  4  0  0  0  0
  8  9  1  0  0  0  0
  9 10  1  0  0  0  0
  9 14  1  0  0  0  0
 10 11  1  0  0  0  0
 11 12  1  0  0  0  0
 12 13  1  0  0  0  0
 12 15  1  0  0  0  0
 13 14  1  0  0  0  0
 15 16  1  0  0  0  0
 16 17  1  0  0  0  0
 17 18  1  0  0  0  0
 18 19  1  0  0  0  0
 19 20  2  0  0  0  0
 19 21  1  0  0  0  0
 21 22  4  0  0  0  0
 21 25  4  0  0  0  0
 22 23  4  0  0  0  0
 22 29  4  0  0  0  0
 23 24  4  0  0  0  0
 23 26  4  0  0  0  0
 24 25  4  0  0  0  0
 26 27  4  0  0  0  0
 27 28  4  0  0  0  0
 28 29  4  0  0  0  0
M  END
>  <Name_Molregno>
557953

>  <DOPAMINE D2>
8.76

>  <DOPAMINE D3>
7.75

>  <DOPAMINE D4>
7.99

$$$$
559708
  Marvin  02231216192D 0   1.00000     0.00000     0

 27 30  0  0  0  0  0  0  0  0999 V2000
   -0.0199   -0.5175    0.0000 Cl  0  0  0  0  0  0  0  0  0
    0.6946   -0.1050    0.0000 C   0  0  0  0  0  0  0  0  0
    0.6946    0.7200    0.0000 C   0  0  0  0  0  0  0  0  0
    1.4091    1.1325    0.0000 C   0  0  0  0  0  0  0  0  0
    2.1235    0.7200    0.0000 C   0  0  0  0  0  0  0  0  0
    2.8380    1.1325    0.0000 N   0  0  0  0  0  0  0  0  0
    2.8380    1.9575    0.0000 C   0  0  0  0  0  0  0  0  0
    3.5525    2.3700    0.0000 C   0  0  0  0  0  0  0  0  0
    4.2670    1.9575    0.0000 N   0  0  0  0  0  0  0  0  0
    4.2670    1.1325    0.0000 C   0  0  0  0  0  0  0  0  0
    3.5525    0.7200    0.0000 C   0  0  0  0  0  0  0  0  0
    4.9814    2.3700    0.0000 C   0  0  0  0  0  0  0  0  0
    5.6959    1.9575    0.0000 C   0  0  0  0  0  0  0  0  0
    6.4104    2.3700    0.0000 C   0  0  0  0  0  0  0  0  0
    7.1248    1.9575    0.0000 C   0  0  0  0  0  0  0  0  0
    7.8393    2.3700    0.0000 C   0  0  0  0  0  0  0  0  0
    8.5538    1.9575    0.0000 C   0  0  0  0  0  0  0  0  0
    8.6400    1.1370    0.0000 N   0  0  0  0  0  0  0  0  0
    9.4470    0.9655    0.0000 N   0  0  0  0  0  0  0  0  0
    9.8595    1.6800    0.0000 C   0  0  0  0  0  0  0  0  0
    9.3075    2.2931    0.0000 C   0  0  0  0  0  0  0  0  0
   10.6845    1.6800    0.0000 C   0  0  0  0  0  0  0  0  0
   11.0970    0.9655    0.0000 C   0  0  0  0  0  0  0  0  0
   10.6845    0.2510    0.0000 C   0  0  0  0  0  0  0  0  0
    9.8595    0.2510    0.0000 C   0  0  0  0  0  0  0  0  0
    2.1235   -0.1050    0.0000 C   0  0  0  0  0  0  0  0  0
    1.4091   -0.5175    0.0000 C   0  0  0  0  0  0  0  0  0
  1  2  1  0  0  0  0
  2  3  4  0  0  0  0
  2 27  4  0  0  0  0
  3  4  4  0  0  0  0
  4  5  4  0  0  0  0
  5  6  1  0  0  0  0
  5 26  4  0  0  0  0
  6  7  1  0  0  0  0
  6 11  1  0  0  0  0
  7  8  1  0  0  0  0
  8  9  1  0  0  0  0
  9 10  1  0  0  0  0
  9 12  1  0  0  0  0
 10 11  1  0  0  0  0
 12 13  1  0  0  0  0
 13 14  1  0  0  0  0
 14 15  1  0  0  0  0
 15 16  1  0  0  0  0
 16 17  1  0  0  0  0
 17 18  4  0  0  0  0
 17 21  4  0  0  0  0
 18 19  4  0  0  0  0
 19 20  4  0  0  0  0
 19 25  4  0  0  0  0
 20 21  4  0  0  0  0
 20 22  4  0  0  0  0
 22 23  4  0  0  0  0
 23 24  4  0  0  0  0
 24 25  4  0  0  0  0
 26 27  4  0  0  0  0
M  END
>  <Name_Molregno>
559708

>  <DOPAMINE D2>
6.73

>  <DOPAMINE D3>
6.54

>  <DOPAMINE D4>
7.34

$$$$
561544
  Marvin  02231216192D 0   1.00000     0.00000     0

 30 33  0  0  0  0  0  0  0  0999 V2000
   -8.7727   -0.1050    0.0000 S   0  0  0  0  0  0  0  0  0
   -9.4871   -0.5175    0.0000 C   0  0  0  0  0  0  0  0  0
   -8.7727    0.7200    0.0000 C   0  0  0  0  0  0  0  0  0
   -9.4871    1.1325    0.0000 C   0  0  0  0  0  0  0  0  0
   -9.4871    1.9575    0.0000 C   0  0  0  0  0  0  0  0  0
   -8.7727    2.3700    0.0000 C   0  0  0  0  0  0  0  0  0
   -8.0582    1.9575    0.0000 C   0  0  0  0  0  0  0  0  0
   -8.0582    1.1325    0.0000 C   0  0  0  0  0  0  0  0  0
   -7.3437    0.7200    0.0000 N   0  0  0  0  0  0  0  0  0
   -6.6292    1.1325    0.0000 C   0  0  0  0  0  0  0  0  0
   -5.9148    0.7200    0.0000 C   0  0  0  0  0  0  0  0  0
   -5.9148   -0.1050    0.0000 N   0  0  0  0  0  0  0  0  0
   -6.6292   -0.5175    0.0000 C   0  0  0  0  0  0  0  0  0
   -7.3437   -0.1050    0.0000 C   0  0  0  0  0  0  0  0  0
   -5.2003   -0.5175    0.0000 C   0  0  0  0  0  0  0  0  0
   -4.4858   -0.1050    0.0000 C   0  0  0  0  0  0  0  0  0
   -3.7714   -0.5175    0.0000 C   0  0  0  0  0  0  0  0  0
   -3.0569   -0.1050    0.0000 C   0  0  0  0  0  0  0  0  0
   -2.3424   -0.5175    0.0000 N   0  0  0  0  0  0  0  0  0
   -1.6279   -0.1050    0.0000 C   0  0  0  0  0  0  0  0  0
   -1.6279    0.7200    0.0000 O   0  0  0  0  0  0  0  0  0
   -0.9135   -0.5175    0.0000 C   0  0  0  0  0  0  0  0  0
   -0.8272   -1.3380    0.0000 N   0  0  0  0  0  0  0  0  0
   -0.0203   -1.5095    0.0000 N   0  0  0  0  0  0  0  0  0
    0.3922   -0.7951    0.0000 C   0  0  0  0  0  0  0  0  0
   -0.1598   -0.1820    0.0000 C   0  0  0  0  0  0  0  0  0
    1.2172   -0.7951    0.0000 C   0  0  0  0  0  0  0  0  0
    1.6297   -1.5095    0.0000 C   0  0  0  0  0  0  0  0  0
    1.2172   -2.2240    0.0000 C   0  0  0  0  0  0  0  0  0
    0.3922   -2.2240    0.0000 C   0  0  0  0  0  0  0  0  0
  1  2  1  0  0  0  0
  1  3  1  0  0  0  0
  3  4  4  0  0  0  0
  3  8  4  0  0  0  0
  4  5  4  0  0  0  0
  5  6  4  0  0  0  0
  6  7  4  0  0  0  0
  7  8  4  0  0  0  0
  8  9  1  0  0  0  0
  9 10  1  0  0  0  0
  9 14  1  0  0  0  0
 10 11  1  0  0  0  0
 11 12  1  0  0  0  0
 12 13  1  0  0  0  0
 12 15  1  0  0  0  0
 13 14  1  0  0  0  0
 15 16  1  0  0  0  0
 16 17  1  0  0  0  0
 17 18  1  0  0  0  0
 18 19  1  0  0  0  0
 19 20  1  0  0  0  0
 20 21  2  0  0  0  0
 20 22  1  0  0  0  0
 22 23  4  0  0  0  0
 22 26  4  0  0  0  0
 23 24  4  0  0  0  0
 24 25  4  0  0  0  0
 24 30  4  0  0  0  0
 25 26  4  0  0  0  0
 25 27  4  0  0  0  0
 27 28  4  0  0  0  0
 28 29  4  0  0  0  0
 29 30  4  0  0  0  0
M  END
>  <Name_Molregno>
561544

>  <DOPAMINE D2>
7.62

>  <DOPAMINE D3>
8.13

>  <DOPAMINE D4>
8.19

$$$$
565343
  Marvin  02231216192D 0   1.00000     0.00000     0

 34 39  0  0  1  0  0  0  0  0999 V2000
    0.1810   -1.2147    0.0000 O   0  0  0  0  0  0  0  0  0
    0.1810   -2.0397    0.0000 C   0  0  0  0  0  0  0  0  0
   -0.5335   -2.4522    0.0000 C   0  0  0  0  0  0  0  0  0
   -0.5335   -3.2772    0.0000 C   0  0  0  0  0  0  0  0  0
   -1.2480   -3.6897    0.0000 N   0  0  0  0  0  0  0  0  0
   -1.9624   -3.2772    0.0000 C   0  0  0  0  0  0  0  0  0
   -1.9624   -2.4522    0.0000 C   0  0  0  0  0  0  0  0  0
   -1.2480   -2.0397    0.0000 C   0  0  0  0  0  0  0  0  0
   -2.6769   -3.6897    0.0000 C   0  0  0  0  0  0  0  0  0
    0.1810   -3.6897    0.0000 C   0  0  0  0  0  0  0  0  0
    0.8954   -3.2772    0.0000 C   0  0  0  0  0  0  0  0  0
    0.8954   -2.4522    0.0000 C   0  0  0  0  0  0  0  0  0
    1.6099   -2.0397    0.0000 O   0  0  0  0  0  0  0  0  0
    1.6099   -1.2147    0.0000 C   0  0  0  0  0  0  0  0  0
    0.8954   -0.8022    0.0000 C   0  0  0  0  0  0  0  0  0
    0.8954    0.0228    0.0000 C   0  0  0  0  0  0  0  0  0
    1.6099    0.4353    0.0000 N   0  0  0  0  0  0  0  0  0
    1.6099    1.2603    0.0000 C   0  0  0  0  0  0  0  0  0
    2.3244    1.6728    0.0000 C   0  0  0  0  0  0  0  0  0
    3.0389    1.2603    0.0000 N   0  0  0  0  0  0  0  0  0
    3.0389    0.4353    0.0000 C   0  0  0  0  0  0  0  0  0
    2.3244    0.0228    0.0000 C   0  0  0  0  0  0  0  0  0
    3.7533    1.6728    0.0000 C   0  0  0  0  0  0  0  0  0
    4.4678    1.2603    0.0000 N   0  0  0  0  0  0  0  0  0
    5.1823    1.6728    0.0000 C   0  0  0  0  0  0  0  0  0
    5.1823    2.4978    0.0000 C   0  0  0  0  0  0  0  0  0
    5.8967    2.9103    0.0000 C   0  0  0  0  0  0  0  0  0
    6.6112    2.4978    0.0000 C   0  0  0  0  0  0  0  0  0
    6.6112    1.6728    0.0000 C   0  0  0  0  0  0  0  0  0
    5.8967    1.2603    0.0000 C   0  0  0  0  0  0  0  0  0
    7.3257    2.9103    0.0000 C   0  0  0  0  0  0  0  0  0
    8.0401    3.3228    0.0000 N   0  0  0  0  0  0  0  0  0
    4.4678    2.9103    0.0000 C   0  0  0  0  0  0  0  0  0
    3.7533    2.4978    0.0000 C   0  0  0  0  0  0  0  0  0
  1  2  1  0  0  0  0
  1 15  1  0  0  0  0
  2  3  4  0  0  0  0
  2 12  4  0  0  0  0
  3  4  4  0  0  0  0
  3  8  4  0  0  0  0
  4  5  4  0  0  0  0
  4 10  4  0  0  0  0
  5  6  4  0  0  0  0
  6  7  4  0  0  0  0
  6  9  1  0  0  0  0
  7  8  4  0  0  0  0
 10 11  4  0  0  0  0
 11 12  4  0  0  0  0
 12 13  1  0  0  0  0
 13 14  1  0  0  0  0
 14 15  1  0  0  0  0
 15 16  1  0  0  0  0
 16 17  1  0  0  0  0
 17 18  1  0  0  0  0
 17 22  1  0  0  0  0
 18 19  1  0  0  0  0
 19 20  1  0  0  0  0
 20 21  1  0  0  0  0
 20 23  1  0  0  0  0
 21 22  1  0  0  0  0
 23 24  4  0  0  0  0
 23 34  4  0  0  0  0
 24 25  4  0  0  0  0
 25 26  4  0  0  0  0
 25 30  4  0  0  0  0
 26 27  4  0  0  0  0
 26 33  4  0  0  0  0
 27 28  4  0  0  0  0
 28 29  4  0  0  0  0
 28 31  1  0  0  0  0
 29 30  4  0  0  0  0
 31 32  3  0  0  0  0
 33 34  4  0  0  0  0
M  END
>  <Name_Molregno>
565343

>  <5-HT1A>
8.43

>  <DOPAMINE D2>
5.88

>  <DOPAMINE D3>
5.88

>  <DOPAMINE D4>
5.85

$$$$
566839
  Marvin  02231216192D 0   1.00000     0.00000     0

 24 27  0  0  0  0  0  0  0  0999 V2000
   -3.1731   -1.2562    0.0000 O   0  0  0  0  0  0  0  0  0
   -2.7606   -1.9707    0.0000 C   0  0  0  0  0  0  0  0  0
   -3.9981   -1.2562    0.0000 C   0  0  0  0  0  0  0  0  0
   -4.4106   -1.9707    0.0000 C   0  0  0  0  0  0  0  0  0
   -5.2356   -1.9707    0.0000 C   0  0  0  0  0  0  0  0  0
   -5.6481   -1.2562    0.0000 C   0  0  0  0  0  0  0  0  0
   -5.2356   -0.5418    0.0000 C   0  0  0  0  0  0  0  0  0
   -4.4106   -0.5418    0.0000 C   0  0  0  0  0  0  0  0  0
   -3.9981    0.1727    0.0000 N   0  0  0  0  0  0  0  0  0
   -4.4106    0.8872    0.0000 C   0  0  0  0  0  0  0  0  0
   -3.9981    1.6016    0.0000 C   0  0  0  0  0  0  0  0  0
   -3.1731    1.6016    0.0000 N   0  0  0  0  0  0  0  0  0
   -2.7606    0.8872    0.0000 C   0  0  0  0  0  0  0  0  0
   -3.1731    0.1727    0.0000 C   0  0  0  0  0  0  0  0  0
   -2.7606    2.3161    0.0000 C   0  0  0  0  0  0  0  0  0
   -1.9356    2.3161    0.0000 C   0  0  0  0  0  0  0  0  0
   -1.4506    1.6487    0.0000 N   0  0  0  0  0  0  0  0  0
   -0.6660    1.9036    0.0000 N   0  0  0  0  0  0  0  0  0
   -0.6660    2.7286    0.0000 C   0  0  0  0  0  0  0  0  0
   -1.4506    2.9836    0.0000 C   0  0  0  0  0  0  0  0  0
    0.0484    3.1411    0.0000 C   0  0  0  0  0  0  0  0  0
    0.7629    2.7286    0.0000 C   0  0  0  0  0  0  0  0  0
    0.7629    1.9036    0.0000 C   0  0  0  0  0  0  0  0  0
    0.0484    1.4911    0.0000 C   0  0  0  0  0  0  0  0  0
  1  2  1  0  0  0  0
  1  3  1  0  0  0  0
  3  4  4  0  0  0  0
  3  8  4  0  0  0  0
  4  5  4  0  0  0  0
  5  6  4  0  0  0  0
  6  7  4  0  0  0  0
  7  8  4  0  0  0  0
  8  9  1  0  0  0  0
  9 10  1  0  0  0  0
  9 14  1  0  0  0  0
 10 11  1  0  0  0  0
 11 12  1  0  0  0  0
 12 13  1  0  0  0  0
 12 15  1  0  0  0  0
 13 14  1  0  0  0  0
 15 16  1  0  0  0  0
 16 17  4  0  0  0  0
 16 20  4  0  0  0  0
 17 18  4  0  0  0  0
 18 19  4  0  0  0  0
 18 24  4  0  0  0  0
 19 20  4  0  0  0  0
 19 21  4  0  0  0  0
 21 22  4  0  0  0  0
 22 23  4  0  0  0  0
 23 24  4  0  0  0  0
M  END
>  <Name_Molregno>
566839

>  <DOPAMINE D2>
6.51

>  <DOPAMINE D3>
6.02

>  <DOPAMINE D4>
8.78

$$$$
591110
  Marvin  02231216192D 0   1.00000     0.00000     0

 27 31  0  0  1  0  0  0  0  0999 V2000
    0.4188    1.2437    0.0000 O   0  0  0  0  0  0  0  0  0
   -0.3658    0.9887    0.0000 C   0  0  0  0  0  0  0  0  0
   -0.3658    0.1637    0.0000 C   0  0  0  0  0  0  0  0  0
    0.4188   -0.0912    0.0000 O   0  0  0  0  0  0  0  0  0
    0.9037    0.5762    0.0000 C   0  0  0  0  0  0  0  0  0
   -1.0803   -0.2488    0.0000 C   0  0  0  0  0  0  0  0  0
   -1.7947    0.1637    0.0000 C   0  0  0  0  0  0  0  0  0
   -2.5092   -0.2488    0.0000 C   0  0  0  0  0  0  0  0  0
   -3.2237    0.1637    0.0000 C   0  0  0  0  0  0  0  0  0
   -3.9382   -0.2488    0.0000 N   0  0  0  0  0  0  0  0  0
   -4.6526    0.1637    0.0000 C   0  0  0  0  0  0  0  0  0
   -4.6526    0.9887    0.0000 C   0  0  0  0  0  0  0  0  0
   -3.9382    1.4012    0.0000 C   0  0  0  0  0  0  0  0  0
   -3.9382    2.2262    0.0000 C   0  0  0  0  0  0  0  0  0
   -3.2237    2.6387    0.0000 C   0  0  0  0  0  0  0  0  0
   -3.2237    3.4637    0.0000 C   0  0  0  0  0  0  0  0  0
   -3.9382    3.8762    0.0000 O   0  0  0  0  0  0  0  0  0
   -2.5092    3.8762    0.0000 C   0  0  0  0  0  0  0  0  0
   -2.5092    2.2262    0.0000 C   0  0  0  0  0  0  0  0  0
   -2.5092    1.4012    0.0000 C   0  0  0  0  0  0  0  0  0
   -3.2237    0.9887    0.0000 C   0  0  0  0  0  0  0  0  0
   -1.7947    0.9887    0.0000 C   0  0  0  0  0  0  0  0  0
   -1.0803    1.4012    0.0000 C   0  0  0  0  0  0  0  0  0
   -1.7947    2.6387    0.0000 C   0  0  0  0  0  0  0  0  0
   -1.0803    2.2262    0.0000 O   0  0  0  0  0  0  0  0  0
   -1.7947    3.4637    0.0000 C   0  0  0  0  0  0  0  0  0
   -3.9382   -1.0738    0.0000 C   0  0  0  0  0  0  0  0  0
  1  2  1  0  0  0  0
  1  5  1  0  0  0  0
  2  3  4  0  0  0  0
  2 23  4  0  0  0  0
  3  4  1  0  0  0  0
  3  6  4  0  0  0  0
  4  5  1  0  0  0  0
  6  7  4  0  0  0  0
  7  8  1  0  0  0  0
  7 22  4  0  0  0  0
  8  9  1  0  0  0  0
  9 10  1  0  0  0  0
  9 21  1  0  0  0  0
 10 11  1  0  0  0  0
 10 27  1  0  0  0  0
 11 12  1  0  0  0  0
 12 13  1  0  0  0  0
 13 14  4  0  0  0  0
 13 21  4  0  0  0  0
 14 15  4  0  0  0  0
 15 16  1  0  0  0  0
 15 19  4  0  0  0  0
 16 17  2  0  0  0  0
 16 18  1  0  0  0  0
 19 20  4  0  0  0  0
 19 24  1  0  0  0  0
 20 21  4  0  0  0  0
 20 22  1  0  0  0  0
 22 23  4  0  0  0  0
 24 25  2  0  0  0  0
 24 26  1  0  0  0  0
M  END
>  <Name_Molregno>
591110

>  <5-HT1B>
7

>  <5-HT1D>
7.31

>  <5-HT1E>
5

>  <5-HT2A>
6.08

>  <5-HT2C>
5.97

>  <5-HT3>
5

>  <5-HT5>
5.65

>  <5-HT6>
6.59

>  <5-HT7>
7.17

>  <Alpha-1A>
8.7

>  <Alpha-1B>
5.92

>  <Alpha-2A>
5.89

>  <Alpha-2B>
6.6

>  <Alpha-2C>
6.74

>  <Beta-1>
5.07

>  <Beta-2>
5

>  <DOPAMINE D1>
6.05

>  <DOPAMINE D2>
6.07

>  <DOPAMINE D3>
6.51

>  <DOPAMINE D4>
6.58

>  <DOPAMINE D5>
5.62

>  <Dopamine transporter>
5

>  <HISTAMINE H1>
5

>  <HISTAMINE H2>
6.17

>  <HISTAMINE H3>
5

>  <HISTAMINE H4>
5

>  <Muscarinic acetylcholine receptor M1>
5

>  <Muscarinic acetylcholine receptor M2>
5

>  <Muscarinic acetylcholine receptor M3>
5

>  <Muscarinic acetylcholine receptor M4>
5

>  <Norepinephrine transporter>
5

>  <Serotonin transporter>
6.61

$$$$
591221
  Marvin  02231216192D 0   1.00000     0.00000     0

 24 27  0  0  0  0  0  0  0  0999 V2000
    1.5366   -2.9010    0.0000 Cl  0  0  0  0  0  0  0  0  0
    1.9491   -2.1865    0.0000 C   0  0  0  0  0  0  0  0  0
    1.5366   -1.4721    0.0000 C   0  0  0  0  0  0  0  0  0
    1.9491   -0.7576    0.0000 C   0  0  0  0  0  0  0  0  0
    2.7741   -0.7576    0.0000 C   0  0  0  0  0  0  0  0  0
    3.1866   -0.0431    0.0000 N   0  0  0  0  0  0  0  0  0
    2.7741    0.6713    0.0000 C   0  0  0  0  0  0  0  0  0
    3.1866    1.3858    0.0000 C   0  0  0  0  0  0  0  0  0
    4.0116    1.3858    0.0000 N   0  0  0  0  0  0  0  0  0
    4.4241    0.6713    0.0000 C   0  0  0  0  0  0  0  0  0
    4.0116   -0.0431    0.0000 C   0  0  0  0  0  0  0  0  0
    4.4241    2.1003    0.0000 C   0  0  0  0  0  0  0  0  0
    5.2491    2.1003    0.0000 C   0  0  0  0  0  0  0  0  0
    5.7340    1.4328    0.0000 N   0  0  0  0  0  0  0  0  0
    6.5187    1.6878    0.0000 C   0  0  0  0  0  0  0  0  0
    6.5187    2.5128    0.0000 C   0  0  0  0  0  0  0  0  0
    5.7340    2.7677    0.0000 N   0  0  0  0  0  0  0  0  0
    5.4791    3.5523    0.0000 C   0  0  0  0  0  0  0  0  0
    7.2331    2.9253    0.0000 C   0  0  0  0  0  0  0  0  0
    7.9476    2.5128    0.0000 C   0  0  0  0  0  0  0  0  0
    7.9476    1.6878    0.0000 C   0  0  0  0  0  0  0  0  0
    7.2331    1.2753    0.0000 C   0  0  0  0  0  0  0  0  0
    3.1866   -1.4721    0.0000 C   0  0  0  0  0  0  0  0  0
    2.7741   -2.1865    0.0000 C   0  0  0  0  0  0  0  0  0
  1  2  1  0  0  0  0
  2  3  4  0  0  0  0
  2 24  4  0  0  0  0
  3  4  4  0  0  0  0
  4  5  4  0  0  0  0
  5  6  1  0  0  0  0
  5 23  4  0  0  0  0
  6  7  1  0  0  0  0
  6 11  1  0  0  0  0
  7  8  1  0  0  0  0
  8  9  1  0  0  0  0
  9 10  1  0  0  0  0
  9 12  1  0  0  0  0
 10 11  1  0  0  0  0
 12 13  1  0  0  0  0
 13 14  4  0  0  0  0
 13 17  4  0  0  0  0
 14 15  4  0  0  0  0
 15 16  4  0  0  0  0
 15 22  4  0  0  0  0
 16 17  4  0  0  0  0
 16 19  4  0  0  0  0
 17 18  1  0  0  0  0
 19 20  4  0  0  0  0
 20 21  4  0  0  0  0
 21 22  4  0  0  0  0
 23 24  4  0  0  0  0
M  END
>  <Name_Molregno>
591221

>  <DOPAMINE D2>
5

>  <DOPAMINE D3>
5

>  <DOPAMINE D4>
6.9

$$$$
591222
  Marvin  02231216192D 0   1.00000     0.00000     0

 27 30  0  0  0  0  0  0  0  0999 V2000
    1.8187   -4.4863    0.0000 F   0  0  0  0  0  0  0  0  0
    0.9937   -4.4863    0.0000 C   0  0  0  0  0  0  0  0  0
    0.9937   -3.6613    0.0000 F   0  0  0  0  0  0  0  0  0
    0.9937   -5.3113    0.0000 F   0  0  0  0  0  0  0  0  0
    0.1687   -4.4863    0.0000 C   0  0  0  0  0  0  0  0  0
   -0.2438   -5.2008    0.0000 C   0  0  0  0  0  0  0  0  0
   -1.0688   -5.2008    0.0000 C   0  0  0  0  0  0  0  0  0
   -1.4813   -4.4863    0.0000 C   0  0  0  0  0  0  0  0  0
   -1.0688   -3.7719    0.0000 C   0  0  0  0  0  0  0  0  0
   -0.2438   -3.7719    0.0000 C   0  0  0  0  0  0  0  0  0
    0.1687   -3.0574    0.0000 N   0  0  0  0  0  0  0  0  0
   -0.2438   -2.3429    0.0000 C   0  0  0  0  0  0  0  0  0
    0.1687   -1.6284    0.0000 C   0  0  0  0  0  0  0  0  0
    0.9937   -1.6284    0.0000 N   0  0  0  0  0  0  0  0  0
    1.4062   -2.3429    0.0000 C   0  0  0  0  0  0  0  0  0
    0.9937   -3.0574    0.0000 C   0  0  0  0  0  0  0  0  0
    1.4062   -0.9140    0.0000 C   0  0  0  0  0  0  0  0  0
    2.2312   -0.9140    0.0000 C   0  0  0  0  0  0  0  0  0
    2.7161   -1.5814    0.0000 N   0  0  0  0  0  0  0  0  0
    3.5008   -1.3265    0.0000 C   0  0  0  0  0  0  0  0  0
    3.5008   -0.5015    0.0000 C   0  0  0  0  0  0  0  0  0
    2.7161   -0.2465    0.0000 N   0  0  0  0  0  0  0  0  0
    2.4612    0.5381    0.0000 C   0  0  0  0  0  0  0  0  0
    4.2152   -0.0890    0.0000 C   0  0  0  0  0  0  0  0  0
    4.9297   -0.5015    0.0000 C   0  0  0  0  0  0  0  0  0
    4.9297   -1.3265    0.0000 C   0  0  0  0  0  0  0  0  0
    4.2152   -1.7390    0.0000 C   0  0  0  0  0  0  0  0  0
  1  2  1  0  0  0  0
  2  3  1  0  0  0  0
  2  4  1  0  0  0  0
  2  5  1  0  0  0  0
  5  6  4  0  0  0  0
  5 10  4  0  0  0  0
  6  7  4  0  0  0  0
  7  8  4  0  0  0  0
  8  9  4  0  0  0  0
  9 10  4  0  0  0  0
 10 11  1  0  0  0  0
 11 12  1  0  0  0  0
 11 16  1  0  0  0  0
 12 13  1  0  0  0  0
 13 14  1  0  0  0  0
 14 15  1  0  0  0  0
 14 17  1  0  0  0  0
 15 16  1  0  0  0  0
 17 18  1  0  0  0  0
 18 19  4  0  0  0  0
 18 22  4  0  0  0  0
 19 20  4  0  0  0  0
 20 21  4  0  0  0  0
 20 27  4  0  0  0  0
 21 22  4  0  0  0  0
 21 24  4  0  0  0  0
 22 23  1  0  0  0  0
 24 25  4  0  0  0  0
 25 26  4  0  0  0  0
 26 27  4  0  0  0  0
M  END
>  <Name_Molregno>
591222

>  <DOPAMINE D4>
6.2

$$$$
591223
  Marvin  02231216192D 0   1.00000     0.00000     0

 28 31  0  0  0  0  0  0  0  0999 V2000
   -2.3716   -2.6489    0.0000 Cl  0  0  0  0  0  0  0  0  0
   -3.1966   -2.6489    0.0000 C   0  0  0  0  0  0  0  0  0
   -3.6091   -3.3633    0.0000 C   0  0  0  0  0  0  0  0  0
   -4.4341   -3.3633    0.0000 C   0  0  0  0  0  0  0  0  0
   -4.8466   -2.6489    0.0000 C   0  0  0  0  0  0  0  0  0
   -4.4341   -1.9344    0.0000 N   0  0  0  0  0  0  0  0  0
   -3.6091   -1.9344    0.0000 C   0  0  0  0  0  0  0  0  0
   -3.1966   -1.2199    0.0000 N   0  0  0  0  0  0  0  0  0
   -3.6091   -0.5054    0.0000 C   0  0  0  0  0  0  0  0  0
   -3.1966    0.2090    0.0000 C   0  0  0  0  0  0  0  0  0
   -2.3716    0.2090    0.0000 N   0  0  0  0  0  0  0  0  0
   -1.9591   -0.5054    0.0000 C   0  0  0  0  0  0  0  0  0
   -2.3716   -1.2199    0.0000 C   0  0  0  0  0  0  0  0  0
   -1.9591    0.9235    0.0000 C   0  0  0  0  0  0  0  0  0
   -1.1341    0.9235    0.0000 C   0  0  0  0  0  0  0  0  0
   -0.6492    0.2561    0.0000 N   0  0  0  0  0  0  0  0  0
    0.1355    0.5110    0.0000 C   0  0  0  0  0  0  0  0  0
    0.1355    1.3360    0.0000 C   0  0  0  0  0  0  0  0  0
   -0.6492    1.5909    0.0000 N   0  0  0  0  0  0  0  0  0
   -0.9041    2.3756    0.0000 C   0  0  0  0  0  0  0  0  0
    0.8499    1.7485    0.0000 C   0  0  0  0  0  0  0  0  0
    1.5644    1.3360    0.0000 C   0  0  0  0  0  0  0  0  0
    1.5644    0.5110    0.0000 C   0  0  0  0  0  0  0  0  0
    0.8499    0.0985    0.0000 C   0  0  0  0  0  0  0  0  0
   -4.8466   -4.0778    0.0000 C   0  0  0  0  0  0  0  0  0
   -5.2591   -4.7923    0.0000 F   0  0  0  0  0  0  0  0  0
   -5.5611   -3.6653    0.0000 F   0  0  0  0  0  0  0  0  0
   -4.1321   -4.4903    0.0000 F   0  0  0  0  0  0  0  0  0
  1  2  1  0  0  0  0
  2  3  4  0  0  0  0
  2  7  4  0  0  0  0
  3  4  4  0  0  0  0
  4  5  4  0  0  0  0
  4 25  1  0  0  0  0
  5  6  4  0  0  0  0
  6  7  4  0  0  0  0
  7  8  1  0  0  0  0
  8  9  1  0  0  0  0
  8 13  1  0  0  0  0
  9 10  1  0  0  0  0
 10 11  1  0  0  0  0
 11 12  1  0  0  0  0
 11 14  1  0  0  0  0
 12 13  1  0  0  0  0
 14 15  1  0  0  0  0
 15 16  4  0  0  0  0
 15 19  4  0  0  0  0
 16 17  4  0  0  0  0
 17 18  4  0  0  0  0
 17 24  4  0  0  0  0
 18 19  4  0  0  0  0
 18 21  4  0  0  0  0
 19 20  1  0  0  0  0
 21 22  4  0  0  0  0
 22 23  4  0  0  0  0
 23 24  4  0  0  0  0
 25 26  1  0  0  0  0
 25 27  1  0  0  0  0
 25 28  1  0  0  0  0
M  END
>  <Name_Molregno>
591223

>  <DOPAMINE D2>
5.3

>  <DOPAMINE D3>
5.3

>  <DOPAMINE D4>
6.2

$$$$
591248
  Marvin  02231216192D 0   1.00000     0.00000     0

 24 27  0  0  0  0  0  0  0  0999 V2000
    1.5366   -2.9010    0.0000 Cl  0  0  0  0  0  0  0  0  0
    1.9491   -2.1865    0.0000 C   0  0  0  0  0  0  0  0  0
    1.5366   -1.4721    0.0000 C   0  0  0  0  0  0  0  0  0
    1.9491   -0.7576    0.0000 N   0  0  0  0  0  0  0  0  0
    2.7741   -0.7576    0.0000 C   0  0  0  0  0  0  0  0  0
    3.1866   -1.4721    0.0000 N   0  0  0  0  0  0  0  0  0
    2.7741   -2.1865    0.0000 C   0  0  0  0  0  0  0  0  0
    3.1866   -0.0431    0.0000 N   0  0  0  0  0  0  0  0  0
    2.7741    0.6713    0.0000 C   0  0  0  0  0  0  0  0  0
    3.1866    1.3858    0.0000 C   0  0  0  0  0  0  0  0  0
    4.0116    1.3858    0.0000 N   0  0  0  0  0  0  0  0  0
    4.4241    0.6713    0.0000 C   0  0  0  0  0  0  0  0  0
    4.0116   -0.0431    0.0000 C   0  0  0  0  0  0  0  0  0
    4.4241    2.1003    0.0000 C   0  0  0  0  0  0  0  0  0
    5.2491    2.1003    0.0000 C   0  0  0  0  0  0  0  0  0
    5.7340    1.4328    0.0000 N   0  0  0  0  0  0  0  0  0
    6.5187    1.6878    0.0000 C   0  0  0  0  0  0  0  0  0
    6.5187    2.5128    0.0000 C   0  0  0  0  0  0  0  0  0
    5.7340    2.7677    0.0000 N   0  0  0  0  0  0  0  0  0
    5.4791    3.5523    0.0000 C   0  0  0  0  0  0  0  0  0
    7.2331    2.9253    0.0000 C   0  0  0  0  0  0  0  0  0
    7.9476    2.5128    0.0000 C   0  0  0  0  0  0  0  0  0
    7.9476    1.6878    0.0000 C   0  0  0  0  0  0  0  0  0
    7.2331    1.2753    0.0000 C   0  0  0  0  0  0  0  0  0
  1  2  1  0  0  0  0
  2  3  4  0  0  0  0
  2  7  4  0  0  0  0
  3  4  4  0  0  0  0
  4  5  4  0  0  0  0
  5  6  4  0  0  0  0
  5  8  1  0  0  0  0
  6  7  4  0  0  0  0
  8  9  1  0  0  0  0
  8 13  1  0  0  0  0
  9 10  1  0  0  0  0
 10 11  1  0  0  0  0
 11 12  1  0  0  0  0
 11 14  1  0  0  0  0
 12 13  1  0  0  0  0
 14 15  1  0  0  0  0
 15 16  4  0  0  0  0
 15 19  4  0  0  0  0
 16 17  4  0  0  0  0
 17 18  4  0  0  0  0
 17 24  4  0  0  0  0
 18 19  4  0  0  0  0
 18 21  4  0  0  0  0
 19 20  1  0  0  0  0
 21 22  4  0  0  0  0
 22 23  4  0  0  0  0
 23 24  4  0  0  0  0
M  END
>  <Name_Molregno>
591248

>  <DOPAMINE D2>
5

>  <DOPAMINE D3>
5

>  <DOPAMINE D4>
5.6

$$$$
591249
  Marvin  02231216192D 0   1.00000     0.00000     0

 25 28  0  0  0  0  0  0  0  0999 V2000
    1.5647   -2.9089    0.0000 Cl  0  0  0  0  0  0  0  0  0
    1.9772   -2.1944    0.0000 C   0  0  0  0  0  0  0  0  0
    1.5647   -1.4799    0.0000 C   0  0  0  0  0  0  0  0  0
    1.9772   -0.7655    0.0000 C   0  0  0  0  0  0  0  0  0
    1.5647   -0.0510    0.0000 F   0  0  0  0  0  0  0  0  0
    2.8022   -0.7655    0.0000 C   0  0  0  0  0  0  0  0  0
    3.2147   -0.0510    0.0000 N   0  0  0  0  0  0  0  0  0
    2.8022    0.6635    0.0000 C   0  0  0  0  0  0  0  0  0
    3.2147    1.3780    0.0000 C   0  0  0  0  0  0  0  0  0
    4.0397    1.3780    0.0000 N   0  0  0  0  0  0  0  0  0
    4.4522    0.6635    0.0000 C   0  0  0  0  0  0  0  0  0
    4.0397   -0.0510    0.0000 C   0  0  0  0  0  0  0  0  0
    4.4522    2.0924    0.0000 C   0  0  0  0  0  0  0  0  0
    5.2772    2.0924    0.0000 C   0  0  0  0  0  0  0  0  0
    5.7621    1.4250    0.0000 N   0  0  0  0  0  0  0  0  0
    6.5467    1.6799    0.0000 C   0  0  0  0  0  0  0  0  0
    6.5467    2.5049    0.0000 C   0  0  0  0  0  0  0  0  0
    5.7621    2.7599    0.0000 N   0  0  0  0  0  0  0  0  0
    5.5072    3.5445    0.0000 C   0  0  0  0  0  0  0  0  0
    7.2612    2.9174    0.0000 C   0  0  0  0  0  0  0  0  0
    7.9757    2.5049    0.0000 C   0  0  0  0  0  0  0  0  0
    7.9757    1.6799    0.0000 C   0  0  0  0  0  0  0  0  0
    7.2612    1.2674    0.0000 C   0  0  0  0  0  0  0  0  0
    3.2147   -1.4799    0.0000 C   0  0  0  0  0  0  0  0  0
    2.8022   -2.1944    0.0000 C   0  0  0  0  0  0  0  0  0
  1  2  1  0  0  0  0
  2  3  4  0  0  0  0
  2 25  4  0  0  0  0
  3  4  4  0  0  0  0
  4  5  1  0  0  0  0
  4  6  4  0  0  0  0
  6  7  1  0  0  0  0
  6 24  4  0  0  0  0
  7  8  1  0  0  0  0
  7 12  1  0  0  0  0
  8  9  1  0  0  0  0
  9 10  1  0  0  0  0
 10 11  1  0  0  0  0
 10 13  1  0  0  0  0
 11 12  1  0  0  0  0
 13 14  1  0  0  0  0
 14 15  4  0  0  0  0
 14 18  4  0  0  0  0
 15 16  4  0  0  0  0
 16 17  4  0  0  0  0
 16 23  4  0  0  0  0
 17 18  4  0  0  0  0
 17 20  4  0  0  0  0
 18 19  1  0  0  0  0
 20 21  4  0  0  0  0
 21 22  4  0  0  0  0
 22 23  4  0  0  0  0
 24 25  4  0  0  0  0
M  END
>  <Name_Molregno>
591249

>  <DOPAMINE D4>
6.6

$$$$
591250
  Marvin  02231216192D 0   1.00000     0.00000     0

 27 30  0  0  0  0  0  0  0  0999 V2000
   -6.8750   -4.6666    0.0000 F   0  0  0  0  0  0  0  0  0
   -6.4625   -3.9522    0.0000 C   0  0  0  0  0  0  0  0  0
   -5.7480   -4.3647    0.0000 F   0  0  0  0  0  0  0  0  0
   -7.1769   -3.5397    0.0000 F   0  0  0  0  0  0  0  0  0
   -6.0500   -3.2377    0.0000 C   0  0  0  0  0  0  0  0  0
   -6.4625   -2.5232    0.0000 C   0  0  0  0  0  0  0  0  0
   -6.0500   -1.8088    0.0000 C   0  0  0  0  0  0  0  0  0
   -5.2250   -1.8088    0.0000 C   0  0  0  0  0  0  0  0  0
   -4.8125   -1.0943    0.0000 N   0  0  0  0  0  0  0  0  0
   -5.2250   -0.3798    0.0000 C   0  0  0  0  0  0  0  0  0
   -4.8125    0.3347    0.0000 C   0  0  0  0  0  0  0  0  0
   -3.9875    0.3347    0.0000 N   0  0  0  0  0  0  0  0  0
   -3.5750   -0.3798    0.0000 C   0  0  0  0  0  0  0  0  0
   -3.9875   -1.0943    0.0000 C   0  0  0  0  0  0  0  0  0
   -3.5750    1.0491    0.0000 C   0  0  0  0  0  0  0  0  0
   -2.7500    1.0491    0.0000 C   0  0  0  0  0  0  0  0  0
   -2.2650    0.3817    0.0000 N   0  0  0  0  0  0  0  0  0
   -1.4804    0.6366    0.0000 C   0  0  0  0  0  0  0  0  0
   -1.4804    1.4616    0.0000 C   0  0  0  0  0  0  0  0  0
   -2.2650    1.7166    0.0000 N   0  0  0  0  0  0  0  0  0
   -2.5200    2.5012    0.0000 C   0  0  0  0  0  0  0  0  0
   -0.7659    1.8741    0.0000 C   0  0  0  0  0  0  0  0  0
   -0.0515    1.4616    0.0000 C   0  0  0  0  0  0  0  0  0
   -0.0515    0.6366    0.0000 C   0  0  0  0  0  0  0  0  0
   -0.7659    0.2241    0.0000 C   0  0  0  0  0  0  0  0  0
   -4.8125   -2.5232    0.0000 C   0  0  0  0  0  0  0  0  0
   -5.2250   -3.2377    0.0000 C   0  0  0  0  0  0  0  0  0
  1  2  1  0  0  0  0
  2  3  1  0  0  0  0
  2  4  1  0  0  0  0
  2  5  1  0  0  0  0
  5  6  4  0  0  0  0
  5 27  4  0  0  0  0
  6  7  4  0  0  0  0
  7  8  4  0  0  0  0
  8  9  1  0  0  0  0
  8 26  4  0  0  0  0
  9 10  1  0  0  0  0
  9 14  1  0  0  0  0
 10 11  1  0  0  0  0
 11 12  1  0  0  0  0
 12 13  1  0  0  0  0
 12 15  1  0  0  0  0
 13 14  1  0  0  0  0
 15 16  1  0  0  0  0
 16 17  4  0  0  0  0
 16 20  4  0  0  0  0
 17 18  4  0  0  0  0
 18 19  4  0  0  0  0
 18 25  4  0  0  0  0
 19 20  4  0  0  0  0
 19 22  4  0  0  0  0
 20 21  1  0  0  0  0
 22 23  4  0  0  0  0
 23 24  4  0  0  0  0
 24 25  4  0  0  0  0
 26 27  4  0  0  0  0
M  END
>  <Name_Molregno>
591250

>  <DOPAMINE D2>
5

>  <DOPAMINE D3>
5

>  <DOPAMINE D4>
6.4

$$$$
591251
  Marvin  02231216192D 0   1.00000     0.00000     0

 26 30  0  0  0  0  0  0  0  0999 V2000
   -4.5741   -0.1657    0.0000 S   0  0  0  0  0  0  0  0  0
   -4.7456   -0.9727    0.0000 C   0  0  0  0  0  0  0  0  0
   -4.0312   -1.3852    0.0000 C   0  0  0  0  0  0  0  0  0
   -3.4181   -0.8332    0.0000 N   0  0  0  0  0  0  0  0  0
   -3.7536   -0.0795    0.0000 C   0  0  0  0  0  0  0  0  0
   -3.3411    0.6350    0.0000 N   0  0  0  0  0  0  0  0  0
   -3.7536    1.3494    0.0000 C   0  0  0  0  0  0  0  0  0
   -3.3411    2.0639    0.0000 C   0  0  0  0  0  0  0  0  0
   -2.5161    2.0639    0.0000 N   0  0  0  0  0  0  0  0  0
   -2.1036    1.3494    0.0000 C   0  0  0  0  0  0  0  0  0
   -2.5161    0.6350    0.0000 C   0  0  0  0  0  0  0  0  0
   -2.1036    2.7784    0.0000 C   0  0  0  0  0  0  0  0  0
   -1.2786    2.7784    0.0000 C   0  0  0  0  0  0  0  0  0
   -0.7937    2.1109    0.0000 N   0  0  0  0  0  0  0  0  0
   -0.0091    2.3659    0.0000 C   0  0  0  0  0  0  0  0  0
   -0.0091    3.1909    0.0000 C   0  0  0  0  0  0  0  0  0
   -0.7937    3.4458    0.0000 N   0  0  0  0  0  0  0  0  0
   -1.0486    4.2304    0.0000 C   0  0  0  0  0  0  0  0  0
    0.7054    3.6034    0.0000 C   0  0  0  0  0  0  0  0  0
    1.4199    3.1909    0.0000 C   0  0  0  0  0  0  0  0  0
    1.4199    2.3659    0.0000 C   0  0  0  0  0  0  0  0  0
    0.7054    1.9534    0.0000 C   0  0  0  0  0  0  0  0  0
   -4.0312   -2.2102    0.0000 C   0  0  0  0  0  0  0  0  0
   -4.7456   -2.6227    0.0000 C   0  0  0  0  0  0  0  0  0
   -5.4601   -2.2102    0.0000 C   0  0  0  0  0  0  0  0  0
   -5.4601   -1.3852    0.0000 C   0  0  0  0  0  0  0  0  0
  1  2  4  0  0  0  0
  1  5  4  0  0  0  0
  2  3  4  0  0  0  0
  2 26  4  0  0  0  0
  3  4  4  0  0  0  0
  3 23  4  0  0  0  0
  4  5  4  0  0  0  0
  5  6  1  0  0  0  0
  6  7  1  0  0  0  0
  6 11  1  0  0  0  0
  7  8  1  0  0  0  0
  8  9  1  0  0  0  0
  9 10  1  0  0  0  0
  9 12  1  0  0  0  0
 10 11  1  0  0  0  0
 12 13  1  0  0  0  0
 13 14  4  0  0  0  0
 13 17  4  0  0  0  0
 14 15  4  0  0  0  0
 15 16  4  0  0  0  0
 15 22  4  0  0  0  0
 16 17  4  0  0  0  0
 16 19  4  0  0  0  0
 17 18  1  0  0  0  0
 19 20  4  0  0  0  0
 20 21  4  0  0  0  0
 21 22  4  0  0  0  0
 23 24  4  0  0  0  0
 24 25  4  0  0  0  0
 25 26  4  0  0  0  0
M  END
>  <Name_Molregno>
591251

>  <DOPAMINE D2>
5

>  <DOPAMINE D3>
5

>  <DOPAMINE D4>
6.1

$$$$
591252
  Marvin  02231216192D 0   1.00000     0.00000     0

 27 30  0  0  0  0  0  0  0  0999 V2000
   -6.8750   -4.6666    0.0000 F   0  0  0  0  0  0  0  0  0
   -6.4625   -3.9522    0.0000 C   0  0  0  0  0  0  0  0  0
   -5.7480   -4.3647    0.0000 F   0  0  0  0  0  0  0  0  0
   -7.1769   -3.5397    0.0000 F   0  0  0  0  0  0  0  0  0
   -6.0500   -3.2377    0.0000 C   0  0  0  0  0  0  0  0  0
   -6.4625   -2.5232    0.0000 C   0  0  0  0  0  0  0  0  0
   -6.0500   -1.8088    0.0000 C   0  0  0  0  0  0  0  0  0
   -5.2250   -1.8088    0.0000 C   0  0  0  0  0  0  0  0  0
   -4.8125   -2.5232    0.0000 N   0  0  0  0  0  0  0  0  0
   -5.2250   -3.2377    0.0000 C   0  0  0  0  0  0  0  0  0
   -4.8125   -1.0943    0.0000 N   0  0  0  0  0  0  0  0  0
   -5.2250   -0.3798    0.0000 C   0  0  0  0  0  0  0  0  0
   -4.8125    0.3347    0.0000 C   0  0  0  0  0  0  0  0  0
   -3.9875    0.3347    0.0000 N   0  0  0  0  0  0  0  0  0
   -3.5750   -0.3798    0.0000 C   0  0  0  0  0  0  0  0  0
   -3.9875   -1.0943    0.0000 C   0  0  0  0  0  0  0  0  0
   -3.5750    1.0491    0.0000 C   0  0  0  0  0  0  0  0  0
   -2.7500    1.0491    0.0000 C   0  0  0  0  0  0  0  0  0
   -2.2650    0.3817    0.0000 N   0  0  0  0  0  0  0  0  0
   -1.4804    0.6366    0.0000 C   0  0  0  0  0  0  0  0  0
   -1.4804    1.4616    0.0000 C   0  0  0  0  0  0  0  0  0
   -2.2650    1.7166    0.0000 N   0  0  0  0  0  0  0  0  0
   -2.5200    2.5012    0.0000 C   0  0  0  0  0  0  0  0  0
   -0.7659    1.8741    0.0000 C   0  0  0  0  0  0  0  0  0
   -0.0515    1.4616    0.0000 C   0  0  0  0  0  0  0  0  0
   -0.0515    0.6366    0.0000 C   0  0  0  0  0  0  0  0  0
   -0.7659    0.2241    0.0000 C   0  0  0  0  0  0  0  0  0
  1  2  1  0  0  0  0
  2  3  1  0  0  0  0
  2  4  1  0  0  0  0
  2  5  1  0  0  0  0
  5  6  4  0  0  0  0
  5 10  4  0  0  0  0
  6  7  4  0  0  0  0
  7  8  4  0  0  0  0
  8  9  4  0  0  0  0
  8 11  1  0  0  0  0
  9 10  4  0  0  0  0
 11 12  1  0  0  0  0
 11 16  1  0  0  0  0
 12 13  1  0  0  0  0
 13 14  1  0  0  0  0
 14 15  1  0  0  0  0
 14 17  1  0  0  0  0
 15 16  1  0  0  0  0
 17 18  1  0  0  0  0
 18 19  4  0  0  0  0
 18 22  4  0  0  0  0
 19 20  4  0  0  0  0
 20 21  4  0  0  0  0
 20 27  4  0  0  0  0
 21 22  4  0  0  0  0
 21 24  4  0  0  0  0
 22 23  1  0  0  0  0
 24 25  4  0  0  0  0
 25 26  4  0  0  0  0
 26 27  4  0  0  0  0
M  END
>  <Name_Molregno>
591252

>  <DOPAMINE D2>
5

>  <DOPAMINE D3>
5

>  <DOPAMINE D4>
6

$$$$
591562
  Marvin  02231216192D 0   1.00000     0.00000     0

 23 26  0  0  0  0  0  0  0  0999 V2000
   -0.1021    0.6398    0.0000 N   0  0  0  0  0  0  0  0  0
    0.6825    0.8947    0.0000 C   0  0  0  0  0  0  0  0  0
    0.6825    1.7197    0.0000 C   0  0  0  0  0  0  0  0  0
   -0.1021    1.9747    0.0000 N   0  0  0  0  0  0  0  0  0
   -0.3571    2.7593    0.0000 C   0  0  0  0  0  0  0  0  0
   -0.5871    1.3072    0.0000 C   0  0  0  0  0  0  0  0  0
   -1.4121    1.3072    0.0000 C   0  0  0  0  0  0  0  0  0
   -1.8246    0.5928    0.0000 N   0  0  0  0  0  0  0  0  0
   -1.4121   -0.1217    0.0000 C   0  0  0  0  0  0  0  0  0
   -1.8246   -0.8362    0.0000 C   0  0  0  0  0  0  0  0  0
   -2.6496   -0.8362    0.0000 C   0  0  0  0  0  0  0  0  0
   -3.0621   -0.1217    0.0000 C   0  0  0  0  0  0  0  0  0
   -2.6496    0.5928    0.0000 C   0  0  0  0  0  0  0  0  0
   -3.0621   -1.5506    0.0000 C   0  0  0  0  0  0  0  0  0
   -2.6496   -2.2651    0.0000 C   0  0  0  0  0  0  0  0  0
   -3.0621   -2.9796    0.0000 C   0  0  0  0  0  0  0  0  0
   -3.8871   -2.9796    0.0000 C   0  0  0  0  0  0  0  0  0
   -4.2996   -2.2651    0.0000 C   0  0  0  0  0  0  0  0  0
   -3.8871   -1.5506    0.0000 C   0  0  0  0  0  0  0  0  0
    1.3970    2.1322    0.0000 C   0  0  0  0  0  0  0  0  0
    2.1114    1.7197    0.0000 C   0  0  0  0  0  0  0  0  0
    2.1114    0.8947    0.0000 C   0  0  0  0  0  0  0  0  0
    1.3970    0.4822    0.0000 C   0  0  0  0  0  0  0  0  0
  1  2  4  0  0  0  0
  1  6  4  0  0  0  0
  2  3  4  0  0  0  0
  2 23  4  0  0  0  0
  3  4  4  0  0  0  0
  3 20  4  0  0  0  0
  4  5  1  0  0  0  0
  4  6  4  0  0  0  0
  6  7  1  0  0  0  0
  7  8  1  0  0  0  0
  8  9  1  0  0  0  0
  8 13  1  0  0  0  0
  9 10  1  0  0  0  0
 10 11  1  0  0  0  0
 11 12  1  0  0  0  0
 11 14  1  0  0  0  0
 12 13  1  0  0  0  0
 14 15  4  0  0  0  0
 14 19  4  0  0  0  0
 15 16  4  0  0  0  0
 16 17  4  0  0  0  0
 17 18  4  0  0  0  0
 18 19  4  0  0  0  0
 20 21  4  0  0  0  0
 21 22  4  0  0  0  0
 22 23  4  0  0  0  0
M  END
>  <Name_Molregno>
591562

>  <DOPAMINE D2>
7.6

>  <DOPAMINE D3>
6.9

>  <DOPAMINE D4>
7

$$$$
591605
  Marvin  02231216192D 0   1.00000     0.00000     0

 24 27  0  0  0  0  0  0  0  0999 V2000
    1.5366   -2.9010    0.0000 Cl  0  0  0  0  0  0  0  0  0
    1.9491   -2.1865    0.0000 C   0  0  0  0  0  0  0  0  0
    1.5366   -1.4721    0.0000 C   0  0  0  0  0  0  0  0  0
    1.9491   -0.7576    0.0000 C   0  0  0  0  0  0  0  0  0
    2.7741   -0.7576    0.0000 C   0  0  0  0  0  0  0  0  0
    3.1866   -1.4721    0.0000 C   0  0  0  0  0  0  0  0  0
    2.7741   -2.1865    0.0000 C   0  0  0  0  0  0  0  0  0
    3.1866   -0.0431    0.0000 C   0  0  0  0  0  0  0  0  0
    2.7741    0.6713    0.0000 C   0  0  0  0  0  0  0  0  0
    3.1866    1.3858    0.0000 C   0  0  0  0  0  0  0  0  0
    4.0116    1.3858    0.0000 N   0  0  0  0  0  0  0  0  0
    4.4241    0.6713    0.0000 C   0  0  0  0  0  0  0  0  0
    4.0116   -0.0431    0.0000 C   0  0  0  0  0  0  0  0  0
    4.4241    2.1003    0.0000 C   0  0  0  0  0  0  0  0  0
    5.2491    2.1003    0.0000 C   0  0  0  0  0  0  0  0  0
    5.7340    1.4328    0.0000 N   0  0  0  0  0  0  0  0  0
    6.5187    1.6878    0.0000 C   0  0  0  0  0  0  0  0  0
    6.5187    2.5128    0.0000 C   0  0  0  0  0  0  0  0  0
    5.7340    2.7677    0.0000 N   0  0  0  0  0  0  0  0  0
    5.4791    3.5523    0.0000 C   0  0  0  0  0  0  0  0  0
    7.2331    2.9253    0.0000 C   0  0  0  0  0  0  0  0  0
    7.9476    2.5128    0.0000 C   0  0  0  0  0  0  0  0  0
    7.9476    1.6878    0.0000 C   0  0  0  0  0  0  0  0  0
    7.2331    1.2753    0.0000 C   0  0  0  0  0  0  0  0  0
  1  2  1  0  0  0  0
  2  3  4  0  0  0  0
  2  7  4  0  0  0  0
  3  4  4  0  0  0  0
  4  5  4  0  0  0  0
  5  6  4  0  0  0  0
  5  8  1  0  0  0  0
  6  7  4  0  0  0  0
  8  9  1  0  0  0  0
  8 13  1  0  0  0  0
  9 10  1  0  0  0  0
 10 11  1  0  0  0  0
 11 12  1  0  0  0  0
 11 14  1  0  0  0  0
 12 13  1  0  0  0  0
 14 15  1  0  0  0  0
 15 16  4  0  0  0  0
 15 19  4  0  0  0  0
 16 17  4  0  0  0  0
 17 18  4  0  0  0  0
 17 24  4  0  0  0  0
 18 19  4  0  0  0  0
 18 21  4  0  0  0  0
 19 20  1  0  0  0  0
 21 22  4  0  0  0  0
 22 23  4  0  0  0  0
 23 24  4  0  0  0  0
M  END
>  <Name_Molregno>
591605

>  <DOPAMINE D2>
7.8

>  <DOPAMINE D3>
6.5

>  <DOPAMINE D4>
7.2

$$$$
591607
  Marvin  02231216192D 0   1.00000     0.00000     0

 27 30  0  0  0  0  0  0  0  0999 V2000
   -8.2899   -2.4380    0.0000 F   0  0  0  0  0  0  0  0  0
   -7.4649   -2.4380    0.0000 C   0  0  0  0  0  0  0  0  0
   -7.4649   -3.2630    0.0000 F   0  0  0  0  0  0  0  0  0
   -7.4649   -1.6130    0.0000 F   0  0  0  0  0  0  0  0  0
   -6.6399   -2.4380    0.0000 C   0  0  0  0  0  0  0  0  0
   -6.2274   -1.7235    0.0000 C   0  0  0  0  0  0  0  0  0
   -5.4024   -1.7235    0.0000 C   0  0  0  0  0  0  0  0  0
   -4.9899   -2.4380    0.0000 C   0  0  0  0  0  0  0  0  0
   -5.4024   -3.1525    0.0000 C   0  0  0  0  0  0  0  0  0
   -6.2274   -3.1525    0.0000 C   0  0  0  0  0  0  0  0  0
   -4.9899   -1.0091    0.0000 C   0  0  0  0  0  0  0  0  0
   -5.4024   -0.2946    0.0000 C   0  0  0  0  0  0  0  0  0
   -4.9899    0.4199    0.0000 C   0  0  0  0  0  0  0  0  0
   -4.1649    0.4199    0.0000 N   0  0  0  0  0  0  0  0  0
   -3.7524   -0.2946    0.0000 C   0  0  0  0  0  0  0  0  0
   -4.1649   -1.0091    0.0000 C   0  0  0  0  0  0  0  0  0
   -3.7524    1.1344    0.0000 C   0  0  0  0  0  0  0  0  0
   -2.9274    1.1344    0.0000 C   0  0  0  0  0  0  0  0  0
   -2.4424    0.4669    0.0000 N   0  0  0  0  0  0  0  0  0
   -1.6578    0.7219    0.0000 C   0  0  0  0  0  0  0  0  0
   -1.6578    1.5469    0.0000 C   0  0  0  0  0  0  0  0  0
   -2.4424    1.8018    0.0000 N   0  0  0  0  0  0  0  0  0
   -2.6974    2.5864    0.0000 C   0  0  0  0  0  0  0  0  0
   -0.9433    1.9594    0.0000 C   0  0  0  0  0  0  0  0  0
   -0.2289    1.5469    0.0000 C   0  0  0  0  0  0  0  0  0
   -0.2289    0.7219    0.0000 C   0  0  0  0  0  0  0  0  0
   -0.9433    0.3094    0.0000 C   0  0  0  0  0  0  0  0  0
  1  2  1  0  0  0  0
  2  3  1  0  0  0  0
  2  4  1  0  0  0  0
  2  5  1  0  0  0  0
  5  6  4  0  0  0  0
  5 10  4  0  0  0  0
  6  7  4  0  0  0  0
  7  8  4  0  0  0  0
  7 11  1  0  0  0  0
  8  9  4  0  0  0  0
  9 10  4  0  0  0  0
 11 12  1  0  0  0  0
 11 16  1  0  0  0  0
 12 13  1  0  0  0  0
 13 14  1  0  0  0  0
 14 15  1  0  0  0  0
 14 17  1  0  0  0  0
 15 16  1  0  0  0  0
 17 18  1  0  0  0  0
 18 19  4  0  0  0  0
 18 22  4  0  0  0  0
 19 20  4  0  0  0  0
 20 21  4  0  0  0  0
 20 27  4  0  0  0  0
 21 22  4  0  0  0  0
 21 24  4  0  0  0  0
 22 23  1  0  0  0  0
 24 25  4  0  0  0  0
 25 26  4  0  0  0  0
 26 27  4  0  0  0  0
M  END
>  <Name_Molregno>
591607

>  <DOPAMINE D2>
6.9

>  <DOPAMINE D3>
5

>  <DOPAMINE D4>
6.6

$$$$
591608
  Marvin  02231216192D 0   1.00000     0.00000     0

 27 30  0  0  0  0  0  0  0  0999 V2000
   -6.8750   -4.6666    0.0000 F   0  0  0  0  0  0  0  0  0
   -6.4625   -3.9522    0.0000 C   0  0  0  0  0  0  0  0  0
   -5.7480   -4.3647    0.0000 F   0  0  0  0  0  0  0  0  0
   -7.1769   -3.5397    0.0000 F   0  0  0  0  0  0  0  0  0
   -6.0500   -3.2377    0.0000 C   0  0  0  0  0  0  0  0  0
   -6.4625   -2.5232    0.0000 C   0  0  0  0  0  0  0  0  0
   -6.0500   -1.8088    0.0000 C   0  0  0  0  0  0  0  0  0
   -5.2250   -1.8088    0.0000 C   0  0  0  0  0  0  0  0  0
   -4.8125   -2.5232    0.0000 C   0  0  0  0  0  0  0  0  0
   -5.2250   -3.2377    0.0000 C   0  0  0  0  0  0  0  0  0
   -4.8125   -1.0943    0.0000 C   0  0  0  0  0  0  0  0  0
   -5.2250   -0.3798    0.0000 C   0  0  0  0  0  0  0  0  0
   -4.8125    0.3347    0.0000 C   0  0  0  0  0  0  0  0  0
   -3.9875    0.3347    0.0000 N   0  0  0  0  0  0  0  0  0
   -3.5750   -0.3798    0.0000 C   0  0  0  0  0  0  0  0  0
   -3.9875   -1.0943    0.0000 C   0  0  0  0  0  0  0  0  0
   -3.5750    1.0491    0.0000 C   0  0  0  0  0  0  0  0  0
   -2.7500    1.0491    0.0000 C   0  0  0  0  0  0  0  0  0
   -2.2650    0.3817    0.0000 N   0  0  0  0  0  0  0  0  0
   -1.4804    0.6366    0.0000 C   0  0  0  0  0  0  0  0  0
   -1.4804    1.4616    0.0000 C   0  0  0  0  0  0  0  0  0
   -2.2650    1.7166    0.0000 N   0  0  0  0  0  0  0  0  0
   -2.5200    2.5012    0.0000 C   0  0  0  0  0  0  0  0  0
   -0.7659    1.8741    0.0000 C   0  0  0  0  0  0  0  0  0
   -0.0515    1.4616    0.0000 C   0  0  0  0  0  0  0  0  0
   -0.0515    0.6366    0.0000 C   0  0  0  0  0  0  0  0  0
   -0.7659    0.2241    0.0000 C   0  0  0  0  0  0  0  0  0
  1  2  1  0  0  0  0
  2  3  1  0  0  0  0
  2  4  1  0  0  0  0
  2  5  1  0  0  0  0
  5  6  4  0  0  0  0
  5 10  4  0  0  0  0
  6  7  4  0  0  0  0
  7  8  4  0  0  0  0
  8  9  4  0  0  0  0
  8 11  1  0  0  0  0
  9 10  4  0  0  0  0
 11 12  1  0  0  0  0
 11 16  1  0  0  0  0
 12 13  1  0  0  0  0
 13 14  1  0  0  0  0
 14 15  1  0  0  0  0
 14 17  1  0  0  0  0
 15 16  1  0  0  0  0
 17 18  1  0  0  0  0
 18 19  4  0  0  0  0
 18 22  4  0  0  0  0
 19 20  4  0  0  0  0
 20 21  4  0  0  0  0
 20 27  4  0  0  0  0
 21 22  4  0  0  0  0
 21 24  4  0  0  0  0
 22 23  1  0  0  0  0
 24 25  4  0  0  0  0
 25 26  4  0  0  0  0
 26 27  4  0  0  0  0
M  END
>  <Name_Molregno>
591608

>  <DOPAMINE D2>
6.6

>  <DOPAMINE D3>
5

>  <DOPAMINE D4>
6.9

$$$$
591630
  Marvin  02231216192D 0   1.00000     0.00000     0

 24 27  0  0  0  0  0  0  0  0999 V2000
    0.5045   -2.3217    0.0000 Cl  0  0  0  0  0  0  0  0  0
    1.3295   -2.3217    0.0000 C   0  0  0  0  0  0  0  0  0
    1.7420   -1.6072    0.0000 C   0  0  0  0  0  0  0  0  0
    2.5670   -1.6072    0.0000 C   0  0  0  0  0  0  0  0  0
    2.9795   -2.3217    0.0000 C   0  0  0  0  0  0  0  0  0
    2.5670   -3.0361    0.0000 C   0  0  0  0  0  0  0  0  0
    1.7420   -3.0361    0.0000 C   0  0  0  0  0  0  0  0  0
    2.9795   -0.8927    0.0000 C   0  0  0  0  0  0  0  0  0
    2.5670   -0.1782    0.0000 C   0  0  0  0  0  0  0  0  0
    2.9795    0.5362    0.0000 C   0  0  0  0  0  0  0  0  0
    3.8045    0.5362    0.0000 N   0  0  0  0  0  0  0  0  0
    4.2170   -0.1782    0.0000 C   0  0  0  0  0  0  0  0  0
    3.8045   -0.8927    0.0000 C   0  0  0  0  0  0  0  0  0
    4.2170    1.2507    0.0000 C   0  0  0  0  0  0  0  0  0
    5.0420    1.2507    0.0000 C   0  0  0  0  0  0  0  0  0
    5.5269    0.5833    0.0000 N   0  0  0  0  0  0  0  0  0
    6.3116    0.8382    0.0000 C   0  0  0  0  0  0  0  0  0
    6.3116    1.6632    0.0000 C   0  0  0  0  0  0  0  0  0
    5.5269    1.9181    0.0000 N   0  0  0  0  0  0  0  0  0
    5.2720    2.7028    0.0000 C   0  0  0  0  0  0  0  0  0
    7.0260    2.0757    0.0000 C   0  0  0  0  0  0  0  0  0
    7.7405    1.6632    0.0000 C   0  0  0  0  0  0  0  0  0
    7.7405    0.8382    0.0000 C   0  0  0  0  0  0  0  0  0
    7.0260    0.4257    0.0000 C   0  0  0  0  0  0  0  0  0
  1  2  1  0  0  0  0
  2  3  4  0  0  0  0
  2  7  4  0  0  0  0
  3  4  4  0  0  0  0
  4  5  4  0  0  0  0
  4  8  1  0  0  0  0
  5  6  4  0  0  0  0
  6  7  4  0  0  0  0
  8  9  1  0  0  0  0
  8 13  1  0  0  0  0
  9 10  1  0  0  0  0
 10 11  1  0  0  0  0
 11 12  1  0  0  0  0
 11 14  1  0  0  0  0
 12 13  1  0  0  0  0
 14 15  1  0  0  0  0
 15 16  4  0  0  0  0
 15 19  4  0  0  0  0
 16 17  4  0  0  0  0
 17 18  4  0  0  0  0
 17 24  4  0  0  0  0
 18 19  4  0  0  0  0
 18 21  4  0  0  0  0
 19 20  1  0  0  0  0
 21 22  4  0  0  0  0
 22 23  4  0  0  0  0
 23 24  4  0  0  0  0
M  END
>  <Name_Molregno>
591630

>  <DOPAMINE D2>
7.4

>  <DOPAMINE D3>
5.8

>  <DOPAMINE D4>
6.6

$$$$
591631
  Marvin  02231216192D 0   1.00000     0.00000     0

 26 30  0  0  0  0  0  0  0  0999 V2000
   -4.5741   -0.1657    0.0000 S   0  0  0  0  0  0  0  0  0
   -4.7456   -0.9727    0.0000 C   0  0  0  0  0  0  0  0  0
   -4.0312   -1.3852    0.0000 C   0  0  0  0  0  0  0  0  0
   -3.4181   -0.8332    0.0000 N   0  0  0  0  0  0  0  0  0
   -3.7536   -0.0795    0.0000 C   0  0  0  0  0  0  0  0  0
   -3.3411    0.6350    0.0000 C   0  0  0  0  0  0  0  0  0
   -3.7536    1.3494    0.0000 C   0  0  0  0  0  0  0  0  0
   -3.3411    2.0639    0.0000 C   0  0  0  0  0  0  0  0  0
   -2.5161    2.0639    0.0000 N   0  0  0  0  0  0  0  0  0
   -2.1036    1.3494    0.0000 C   0  0  0  0  0  0  0  0  0
   -2.5161    0.6350    0.0000 C   0  0  0  0  0  0  0  0  0
   -2.1036    2.7784    0.0000 C   0  0  0  0  0  0  0  0  0
   -1.2786    2.7784    0.0000 C   0  0  0  0  0  0  0  0  0
   -0.7937    2.1109    0.0000 N   0  0  0  0  0  0  0  0  0
   -0.0091    2.3659    0.0000 C   0  0  0  0  0  0  0  0  0
   -0.0091    3.1909    0.0000 C   0  0  0  0  0  0  0  0  0
   -0.7937    3.4458    0.0000 N   0  0  0  0  0  0  0  0  0
   -1.0486    4.2304    0.0000 C   0  0  0  0  0  0  0  0  0
    0.7054    3.6034    0.0000 C   0  0  0  0  0  0  0  0  0
    1.4199    3.1909    0.0000 C   0  0  0  0  0  0  0  0  0
    1.4199    2.3659    0.0000 C   0  0  0  0  0  0  0  0  0
    0.7054    1.9534    0.0000 C   0  0  0  0  0  0  0  0  0
   -4.0312   -2.2102    0.0000 C   0  0  0  0  0  0  0  0  0
   -4.7456   -2.6227    0.0000 C   0  0  0  0  0  0  0  0  0
   -5.4601   -2.2102    0.0000 C   0  0  0  0  0  0  0  0  0
   -5.4601   -1.3852    0.0000 C   0  0  0  0  0  0  0  0  0
  1  2  4  0  0  0  0
  1  5  4  0  0  0  0
  2  3  4  0  0  0  0
  2 26  4  0  0  0  0
  3  4  4  0  0  0  0
  3 23  4  0  0  0  0
  4  5  4  0  0  0  0
  5  6  1  0  0  0  0
  6  7  1  0  0  0  0
  6 11  1  0  0  0  0
  7  8  1  0  0  0  0
  8  9  1  0  0  0  0
  9 10  1  0  0  0  0
  9 12  1  0  0  0  0
 10 11  1  0  0  0  0
 12 13  1  0  0  0  0
 13 14  4  0  0  0  0
 13 17  4  0  0  0  0
 14 15  4  0  0  0  0
 15 16  4  0  0  0  0
 15 22  4  0  0  0  0
 16 17  4  0  0  0  0
 16 19  4  0  0  0  0
 17 18  1  0  0  0  0
 19 20  4  0  0  0  0
 20 21  4  0  0  0  0
 21 22  4  0  0  0  0
 23 24  4  0  0  0  0
 24 25  4  0  0  0  0
 25 26  4  0  0  0  0
M  END
>  <Name_Molregno>
591631

>  <DOPAMINE D2>
6.4

>  <DOPAMINE D3>
5

>  <DOPAMINE D4>
8.1

$$$$
591632
  Marvin  02231216192D 0   1.00000     0.00000     0

 26 30  0  0  0  0  0  0  0  0999 V2000
    1.2018   -4.0328    0.0000 S   0  0  0  0  0  0  0  0  0
    1.8149   -3.4808    0.0000 N   0  0  0  0  0  0  0  0  0
    1.4793   -2.7271    0.0000 C   0  0  0  0  0  0  0  0  0
    0.6589   -2.8134    0.0000 C   0  0  0  0  0  0  0  0  0
    0.4873   -3.6203    0.0000 C   0  0  0  0  0  0  0  0  0
   -0.2973   -3.8753    0.0000 C   0  0  0  0  0  0  0  0  0
   -0.9104   -3.3232    0.0000 C   0  0  0  0  0  0  0  0  0
   -0.7389   -2.5163    0.0000 C   0  0  0  0  0  0  0  0  0
    0.0458   -2.2613    0.0000 C   0  0  0  0  0  0  0  0  0
    1.8918   -2.0126    0.0000 C   0  0  0  0  0  0  0  0  0
    1.4793   -1.2982    0.0000 C   0  0  0  0  0  0  0  0  0
    1.8918   -0.5837    0.0000 C   0  0  0  0  0  0  0  0  0
    2.7168   -0.5837    0.0000 N   0  0  0  0  0  0  0  0  0
    3.1293   -1.2982    0.0000 C   0  0  0  0  0  0  0  0  0
    2.7168   -2.0126    0.0000 C   0  0  0  0  0  0  0  0  0
    3.1293    0.1308    0.0000 C   0  0  0  0  0  0  0  0  0
    3.9543    0.1308    0.0000 C   0  0  0  0  0  0  0  0  0
    4.4393   -0.5367    0.0000 N   0  0  0  0  0  0  0  0  0
    5.2239   -0.2817    0.0000 C   0  0  0  0  0  0  0  0  0
    5.2239    0.5433    0.0000 C   0  0  0  0  0  0  0  0  0
    4.4393    0.7982    0.0000 N   0  0  0  0  0  0  0  0  0
    4.1843    1.5828    0.0000 C   0  0  0  0  0  0  0  0  0
    5.9384    0.9558    0.0000 C   0  0  0  0  0  0  0  0  0
    6.6528    0.5433    0.0000 C   0  0  0  0  0  0  0  0  0
    6.6528   -0.2817    0.0000 C   0  0  0  0  0  0  0  0  0
    5.9384   -0.6942    0.0000 C   0  0  0  0  0  0  0  0  0
  1  2  4  0  0  0  0
  1  5  4  0  0  0  0
  2  3  4  0  0  0  0
  3  4  4  0  0  0  0
  3 10  1  0  0  0  0
  4  5  4  0  0  0  0
  4  9  4  0  0  0  0
  5  6  4  0  0  0  0
  6  7  4  0  0  0  0
  7  8  4  0  0  0  0
  8  9  4  0  0  0  0
 10 11  1  0  0  0  0
 10 15  1  0  0  0  0
 11 12  1  0  0  0  0
 12 13  1  0  0  0  0
 13 14  1  0  0  0  0
 13 16  1  0  0  0  0
 14 15  1  0  0  0  0
 16 17  1  0  0  0  0
 17 18  4  0  0  0  0
 17 21  4  0  0  0  0
 18 19  4  0  0  0  0
 19 20  4  0  0  0  0
 19 26  4  0  0  0  0
 20 21  4  0  0  0  0
 20 23  4  0  0  0  0
 21 22  1  0  0  0  0
 23 24  4  0  0  0  0
 24 25  4  0  0  0  0
 25 26  4  0  0  0  0
M  END
>  <Name_Molregno>
591632

>  <DOPAMINE D2>
7.1

>  <DOPAMINE D3>
5.4

>  <DOPAMINE D4>
6.7

$$$$
591633
  Marvin  02231216192D 0   1.00000     0.00000     0

 28 31  0  0  0  0  0  0  0  0999 V2000
   -2.3716   -2.6489    0.0000 Cl  0  0  0  0  0  0  0  0  0
   -3.1966   -2.6489    0.0000 C   0  0  0  0  0  0  0  0  0
   -3.6091   -3.3633    0.0000 C   0  0  0  0  0  0  0  0  0
   -4.4341   -3.3633    0.0000 C   0  0  0  0  0  0  0  0  0
   -4.8466   -2.6489    0.0000 C   0  0  0  0  0  0  0  0  0
   -4.4341   -1.9344    0.0000 N   0  0  0  0  0  0  0  0  0
   -3.6091   -1.9344    0.0000 C   0  0  0  0  0  0  0  0  0
   -3.1966   -1.2199    0.0000 C   0  0  0  0  0  0  0  0  0
   -3.6091   -0.5054    0.0000 C   0  0  0  0  0  0  0  0  0
   -3.1966    0.2090    0.0000 C   0  0  0  0  0  0  0  0  0
   -2.3716    0.2090    0.0000 N   0  0  0  0  0  0  0  0  0
   -1.9591   -0.5054    0.0000 C   0  0  0  0  0  0  0  0  0
   -2.3716   -1.2199    0.0000 C   0  0  0  0  0  0  0  0  0
   -1.9591    0.9235    0.0000 C   0  0  0  0  0  0  0  0  0
   -1.1341    0.9235    0.0000 C   0  0  0  0  0  0  0  0  0
   -0.6492    0.2561    0.0000 N   0  0  0  0  0  0  0  0  0
    0.1355    0.5110    0.0000 C   0  0  0  0  0  0  0  0  0
    0.1355    1.3360    0.0000 C   0  0  0  0  0  0  0  0  0
   -0.6492    1.5909    0.0000 N   0  0  0  0  0  0  0  0  0
   -0.9041    2.3756    0.0000 C   0  0  0  0  0  0  0  0  0
    0.8499    1.7485    0.0000 C   0  0  0  0  0  0  0  0  0
    1.5644    1.3360    0.0000 C   0  0  0  0  0  0  0  0  0
    1.5644    0.5110    0.0000 C   0  0  0  0  0  0  0  0  0
    0.8499    0.0985    0.0000 C   0  0  0  0  0  0  0  0  0
   -4.8466   -4.0778    0.0000 C   0  0  0  0  0  0  0  0  0
   -5.2591   -4.7923    0.0000 F   0  0  0  0  0  0  0  0  0
   -5.5611   -3.6653    0.0000 F   0  0  0  0  0  0  0  0  0
   -4.1321   -4.4903    0.0000 F   0  0  0  0  0  0  0  0  0
  1  2  1  0  0  0  0
  2  3  4  0  0  0  0
  2  7  4  0  0  0  0
  3  4  4  0  0  0  0
  4  5  4  0  0  0  0
  4 25  1  0  0  0  0
  5  6  4  0  0  0  0
  6  7  4  0  0  0  0
  7  8  1  0  0  0  0
  8  9  1  0  0  0  0
  8 13  1  0  0  0  0
  9 10  1  0  0  0  0
 10 11  1  0  0  0  0
 11 12  1  0  0  0  0
 11 14  1  0  0  0  0
 12 13  1  0  0  0  0
 14 15  1  0  0  0  0
 15 16  4  0  0  0  0
 15 19  4  0  0  0  0
 16 17  4  0  0  0  0
 17 18  4  0  0  0  0
 17 24  4  0  0  0  0
 18 19  4  0  0  0  0
 18 21  4  0  0  0  0
 19 20  1  0  0  0  0
 21 22  4  0  0  0  0
 22 23  4  0  0  0  0
 23 24  4  0  0  0  0
 25 26  1  0  0  0  0
 25 27  1  0  0  0  0
 25 28  1  0  0  0  0
M  END
>  <Name_Molregno>
591633

>  <DOPAMINE D2>
6.1

>  <DOPAMINE D3>
5.8

>  <DOPAMINE D4>
5.6

$$$$
594329
  Marvin  02231216192D 0   1.00000     0.00000     0

 22 25  0  0  0  0  0  0  0  0999 V2000
    4.9785    1.6165    0.0000 O   0  0  0  0  0  0  0  0  0
    4.1539    1.5897    0.0000 C   0  0  0  0  0  0  0  0  0
    3.8736    2.3656    0.0000 C   0  0  0  0  0  0  0  0  0
    4.5249    2.8720    0.0000 O   0  0  0  0  0  0  0  0  0
    5.2078    2.4090    0.0000 C   0  0  0  0  0  0  0  0  0
    3.0615    2.5108    0.0000 C   0  0  0  0  0  0  0  0  0
    2.5297    1.8801    0.0000 C   0  0  0  0  0  0  0  0  0
    2.8100    1.1042    0.0000 C   0  0  0  0  0  0  0  0  0
    2.2781    0.4735    0.0000 C   0  0  0  0  0  0  0  0  0
    2.5584   -0.3024    0.0000 C   0  0  0  0  0  0  0  0  0
    2.0266   -0.9331    0.0000 C   0  0  0  0  0  0  0  0  0
    1.2145   -0.7879    0.0000 N   0  0  0  0  0  0  0  0  0
    0.9342   -0.0120    0.0000 C   0  0  0  0  0  0  0  0  0
    1.4660    0.6187    0.0000 C   0  0  0  0  0  0  0  0  0
    1.1857    1.3946    0.0000 C   0  0  0  0  0  0  0  0  0
    1.7176    2.0254    0.0000 C   0  0  0  0  0  0  0  0  0
    1.4373    2.8013    0.0000 C   0  0  0  0  0  0  0  0  0
    0.6251    2.9465    0.0000 C   0  0  0  0  0  0  0  0  0
    0.0933    2.3158    0.0000 C   0  0  0  0  0  0  0  0  0
    0.3736    1.5399    0.0000 C   0  0  0  0  0  0  0  0  0
    0.6827   -1.4186    0.0000 C   0  0  0  0  0  0  0  0  0
    3.6221    0.9590    0.0000 C   0  0  0  0  0  0  0  0  0
  1  2  1  0  0  0  0
  1  5  1  0  0  0  0
  2  3  4  0  0  0  0
  2 22  4  0  0  0  0
  3  4  1  0  0  0  0
  3  6  4  0  0  0  0
  4  5  1  0  0  0  0
  6  7  4  0  0  0  0
  7  8  4  0  0  0  0
  7 16  1  0  0  0  0
  8  9  1  0  0  0  0
  8 22  4  0  0  0  0
  9 10  1  0  0  0  0
 10 11  1  0  0  0  0
 11 12  1  0  0  0  0
 12 13  1  0  0  0  0
 12 21  1  0  0  0  0
 13 14  1  0  0  0  0
 14 15  1  0  0  0  0
 15 16  4  0  0  0  0
 15 20  4  0  0  0  0
 16 17  4  0  0  0  0
 17 18  4  0  0  0  0
 18 19  4  0  0  0  0
 19 20  4  0  0  0  0
M  END
>  <Name_Molregno>
594329

>  <DOPAMINE D1>
5.16

>  <DOPAMINE D2>
5

>  <DOPAMINE D3>
5

>  <DOPAMINE D4>
5

>  <DOPAMINE D5>
5.37

$$$$
594340
  Marvin  02231216192D 0   1.00000     0.00000     0

 20 22  0  0  1  0  0  0  0  0999 V2000
    0.4365   -1.6699    0.0000 O   0  0  0  0  0  0  0  0  0
    1.1510   -1.2574    0.0000 C   0  0  0  0  0  0  0  0  0
    1.8655   -1.6699    0.0000 C   0  0  0  0  0  0  0  0  0
    2.5799   -1.2574    0.0000 C   0  0  0  0  0  0  0  0  0
    2.5799   -0.4324    0.0000 C   0  0  0  0  0  0  0  0  0
    1.8655   -0.0199    0.0000 C   0  0  0  0  0  0  0  0  0
    1.1510   -0.4324    0.0000 C   0  0  0  0  0  0  0  0  0
    3.2944   -0.0199    0.0000 C   0  0  0  0  0  0  0  0  0
    4.0089   -0.4324    0.0000 N   0  0  0  0  0  0  0  0  0
    4.0089   -1.2574    0.0000 C   0  0  0  0  0  0  0  0  0
    3.2944   -1.6699    0.0000 C   0  0  0  0  0  0  0  0  0
    4.7233   -0.0199    0.0000 C   0  0  0  0  0  0  0  0  0
    3.2944    0.8051    0.0000 C   0  0  0  0  0  0  0  0  0
    4.0089    1.2176    0.0000 C   0  0  0  0  0  0  0  0  0
    4.7233    0.8051    0.0000 C   0  0  0  0  0  0  0  0  0
    5.4378    1.2176    0.0000 C   0  0  0  0  0  0  0  0  0
    5.4378    2.0426    0.0000 C   0  0  0  0  0  0  0  0  0
    4.7233    2.4551    0.0000 C   0  0  0  0  0  0  0  0  0
    4.0089    2.0426    0.0000 C   0  0  0  0  0  0  0  0  0
    3.2944    2.4551    0.0000 C   0  0  0  0  0  0  0  0  0
  1  2  1  0  0  0  0
  2  3  4  0  0  0  0
  2  7  4  0  0  0  0
  3  4  4  0  0  0  0
  4  5  4  0  0  0  0
  4 11  1  0  0  0  0
  5  6  4  0  0  0  0
  5  8  1  0  0  0  0
  6  7  4  0  0  0  0
  8  9  1  0  0  0  0
  8 13  1  0  0  0  0
  9 10  1  0  0  0  0
  9 12  1  0  0  0  0
 10 11  1  0  0  0  0
 13 14  1  0  0  0  0
 14 15  4  0  0  0  0
 14 19  4  0  0  0  0
 15 16  4  0  0  0  0
 16 17  4  0  0  0  0
 17 18  4  0  0  0  0
 18 19  4  0  0  0  0
 19 20  1  0  0  0  0
M  END
>  <Name_Molregno>
594340

>  <DOPAMINE D1>
5.52

>  <DOPAMINE D2>
5.56

>  <DOPAMINE D3>
5

>  <DOPAMINE D4>
5

>  <DOPAMINE D5>
5

$$$$
594341
  Marvin  02231216192D 0   1.00000     0.00000     0

 21 23  0  0  1  0  0  0  0  0999 V2000
    0.1787    1.6422    0.0000 O   0  0  0  0  0  0  0  0  0
   -0.5358    1.2297    0.0000 C   0  0  0  0  0  0  0  0  0
    0.8932    1.2297    0.0000 C   0  0  0  0  0  0  0  0  0
    1.6077    1.6422    0.0000 C   0  0  0  0  0  0  0  0  0
    2.3221    1.2297    0.0000 C   0  0  0  0  0  0  0  0  0
    3.0366    1.6422    0.0000 C   0  0  0  0  0  0  0  0  0
    3.7511    1.2297    0.0000 C   0  0  0  0  0  0  0  0  0
    2.3221    0.4047    0.0000 C   0  0  0  0  0  0  0  0  0
    1.6077   -0.0078    0.0000 C   0  0  0  0  0  0  0  0  0
    0.8932    0.4047    0.0000 C   0  0  0  0  0  0  0  0  0
    3.0366   -0.0078    0.0000 C   0  0  0  0  0  0  0  0  0
    3.0366   -0.8328    0.0000 N   0  0  0  0  0  0  0  0  0
    3.7511   -1.2453    0.0000 C   0  0  0  0  0  0  0  0  0
    4.4655   -0.8328    0.0000 C   0  0  0  0  0  0  0  0  0
    4.4655   -0.0078    0.0000 C   0  0  0  0  0  0  0  0  0
    3.7511    0.4047    0.0000 C   0  0  0  0  0  0  0  0  0
    5.1800    0.4047    0.0000 C   0  0  0  0  0  0  0  0  0
    5.8945   -0.0078    0.0000 C   0  0  0  0  0  0  0  0  0
    5.8945   -0.8328    0.0000 C   0  0  0  0  0  0  0  0  0
    5.1800   -1.2453    0.0000 C   0  0  0  0  0  0  0  0  0
    2.3221   -1.2453    0.0000 C   0  0  0  0  0  0  0  0  0
  1  2  1  0  0  0  0
  1  3  1  0  0  0  0
  3  4  4  0  0  0  0
  3 10  4  0  0  0  0
  4  5  4  0  0  0  0
  5  6  1  0  0  0  0
  5  8  4  0  0  0  0
  6  7  1  0  0  0  0
  8  9  4  0  0  0  0
  8 11  1  0  0  0  0
  9 10  4  0  0  0  0
 11 12  1  0  0  0  0
 11 16  1  0  0  0  0
 12 13  1  0  0  0  0
 12 21  1  0  0  0  0
 13 14  1  0  0  0  0
 14 15  4  0  0  0  0
 14 20  4  0  0  0  0
 15 16  1  0  0  0  0
 15 17  4  0  0  0  0
 17 18  4  0  0  0  0
 18 19  4  0  0  0  0
 19 20  4  0  0  0  0
M  END
>  <Name_Molregno>
594341

>  <DOPAMINE D1>
5

>  <DOPAMINE D2>
5

>  <DOPAMINE D3>
5

>  <DOPAMINE D4>
5

>  <DOPAMINE D5>
5

$$$$
594386
  Marvin  02231216192D 0   1.00000     0.00000     0

 19 22  0  0  1  0  0  0  0  0999 V2000
   -0.0338   -0.6455    0.0000 O   0  0  0  0  0  0  0  0  0
    0.7764   -0.4896    0.0000 C   0  0  0  0  0  0  0  0  0
    1.0464    0.2899    0.0000 C   0  0  0  0  0  0  0  0  0
    1.8565    0.4459    0.0000 C   0  0  0  0  0  0  0  0  0
    2.1266    1.2254    0.0000 C   0  0  0  0  0  0  0  0  0
    2.9367    1.3813    0.0000 C   0  0  0  0  0  0  0  0  0
    3.4768    0.7577    0.0000 N   0  0  0  0  0  0  0  0  0
    3.2068   -0.0219    0.0000 C   0  0  0  0  0  0  0  0  0
    3.7468   -0.6455    0.0000 C   0  0  0  0  0  0  0  0  0
    4.5570   -0.4896    0.0000 C   0  0  0  0  0  0  0  0  0
    4.8270    0.2899    0.0000 C   0  0  0  0  0  0  0  0  0
    4.2869    0.9136    0.0000 C   0  0  0  0  0  0  0  0  0
    5.6372    0.4459    0.0000 C   0  0  0  0  0  0  0  0  0
    6.1772   -0.1778    0.0000 C   0  0  0  0  0  0  0  0  0
    5.9072   -0.9573    0.0000 C   0  0  0  0  0  0  0  0  0
    5.0971   -1.1132    0.0000 C   0  0  0  0  0  0  0  0  0
    2.3966   -0.1778    0.0000 C   0  0  0  0  0  0  0  0  0
    2.1266   -0.9573    0.0000 C   0  0  0  0  0  0  0  0  0
    1.3164   -1.1132    0.0000 C   0  0  0  0  0  0  0  0  0
  1  2  1  0  0  0  0
  2  3  4  0  0  0  0
  2 19  4  0  0  0  0
  3  4  4  0  0  0  0
  4  5  1  0  0  0  0
  4 17  4  0  0  0  0
  5  6  1  0  0  0  0
  6  7  1  0  0  0  0
  7  8  1  0  0  0  0
  7 12  1  0  0  0  0
  8  9  1  0  0  0  0
  8 17  1  0  0  0  0
  9 10  1  0  0  0  0
 10 11  4  0  0  0  0
 10 16  4  0  0  0  0
 11 12  1  0  0  0  0
 11 13  4  0  0  0  0
 13 14  4  0  0  0  0
 14 15  4  0  0  0  0
 15 16  4  0  0  0  0
 17 18  4  0  0  0  0
 18 19  4  0  0  0  0
M  END
>  <Name_Molregno>
594386

>  <DOPAMINE D1>
6.87

>  <DOPAMINE D2>
6.31

>  <DOPAMINE D3>
6.51

>  <DOPAMINE D4>
5.29

>  <DOPAMINE D5>
7.39

$$$$
594387
  Marvin  02231216192D 0   1.00000     0.00000     0

 21 23  0  0  1  0  0  0  0  0999 V2000
    0.4314   -1.9047    0.0000 O   0  0  0  0  0  0  0  0  0
   -0.2831   -1.4922    0.0000 C   0  0  0  0  0  0  0  0  0
    1.1458   -1.4922    0.0000 C   0  0  0  0  0  0  0  0  0
    1.8603   -1.9047    0.0000 C   0  0  0  0  0  0  0  0  0
    2.5748   -1.4922    0.0000 C   0  0  0  0  0  0  0  0  0
    2.5748   -0.6672    0.0000 C   0  0  0  0  0  0  0  0  0
    1.8603   -0.2547    0.0000 C   0  0  0  0  0  0  0  0  0
    1.1458   -0.6672    0.0000 C   0  0  0  0  0  0  0  0  0
    3.2892   -0.2547    0.0000 C   0  0  0  0  0  0  0  0  0
    4.0037   -0.6672    0.0000 N   0  0  0  0  0  0  0  0  0
    4.0037   -1.4922    0.0000 C   0  0  0  0  0  0  0  0  0
    3.2892   -1.9047    0.0000 C   0  0  0  0  0  0  0  0  0
    4.7182   -0.2547    0.0000 C   0  0  0  0  0  0  0  0  0
    3.2892    0.5703    0.0000 C   0  0  0  0  0  0  0  0  0
    4.0037    0.9828    0.0000 C   0  0  0  0  0  0  0  0  0
    4.7182    0.5703    0.0000 C   0  0  0  0  0  0  0  0  0
    5.4327    0.9828    0.0000 C   0  0  0  0  0  0  0  0  0
    5.4327    1.8078    0.0000 C   0  0  0  0  0  0  0  0  0
    4.7182    2.2203    0.0000 C   0  0  0  0  0  0  0  0  0
    4.0037    1.8078    0.0000 C   0  0  0  0  0  0  0  0  0
    3.2892    2.2203    0.0000 C   0  0  0  0  0  0  0  0  0
  1  2  1  0  0  0  0
  1  3  1  0  0  0  0
  3  4  4  0  0  0  0
  3  8  4  0  0  0  0
  4  5  4  0  0  0  0
  5  6  4  0  0  0  0
  5 12  1  0  0  0  0
  6  7  4  0  0  0  0
  6  9  1  0  0  0  0
  7  8  4  0  0  0  0
  9 10  1  0  0  0  0
  9 14  1  0  0  0  0
 10 11  1  0  0  0  0
 10 13  1  0  0  0  0
 11 12  1  0  0  0  0
 14 15  1  0  0  0  0
 15 16  4  0  0  0  0
 15 20  4  0  0  0  0
 16 17  4  0  0  0  0
 17 18  4  0  0  0  0
 18 19  4  0  0  0  0
 19 20  4  0  0  0  0
 20 21  1  0  0  0  0
M  END
>  <Name_Molregno>
594387

>  <DOPAMINE D1>
5.63

>  <DOPAMINE D2>
5.13

>  <DOPAMINE D3>
5

>  <DOPAMINE D4>
5.18

>  <DOPAMINE D5>
5

$$$$
594401
  Marvin  02231216192D 0   1.00000     0.00000     0

 21 23  0  0  0  0  0  0  0  0999 V2000
   -6.2340    0.5870    0.0000 O   0  0  0  0  0  0  0  0  0
   -6.7741   -0.0367    0.0000 C   0  0  0  0  0  0  0  0  0
   -5.4239    0.4310    0.0000 C   0  0  0  0  0  0  0  0  0
   -4.8838    1.0547    0.0000 C   0  0  0  0  0  0  0  0  0
   -4.0736    0.8988    0.0000 C   0  0  0  0  0  0  0  0  0
   -3.5336    1.5224    0.0000 C   0  0  0  0  0  0  0  0  0
   -2.7234    1.3665    0.0000 C   0  0  0  0  0  0  0  0  0
   -2.1833    1.9901    0.0000 N   0  0  0  0  0  0  0  0  0
   -1.3732    1.8342    0.0000 C   0  0  0  0  0  0  0  0  0
   -1.1032    1.0547    0.0000 C   0  0  0  0  0  0  0  0  0
   -1.6432    0.4310    0.0000 C   0  0  0  0  0  0  0  0  0
   -2.4534    0.5870    0.0000 C   0  0  0  0  0  0  0  0  0
   -2.9935   -0.0367    0.0000 C   0  0  0  0  0  0  0  0  0
   -3.8036    0.1192    0.0000 C   0  0  0  0  0  0  0  0  0
   -4.3437   -0.5044    0.0000 C   0  0  0  0  0  0  0  0  0
   -5.1538   -0.3485    0.0000 C   0  0  0  0  0  0  0  0  0
   -1.3732   -0.3485    0.0000 C   0  0  0  0  0  0  0  0  0
   -0.5631   -0.5044    0.0000 C   0  0  0  0  0  0  0  0  0
   -0.0230    0.1192    0.0000 C   0  0  0  0  0  0  0  0  0
   -0.2930    0.8988    0.0000 C   0  0  0  0  0  0  0  0  0
   -2.4534    2.7697    0.0000 C   0  0  0  0  0  0  0  0  0
  1  2  1  0  0  0  0
  1  3  1  0  0  0  0
  3  4  4  0  0  0  0
  3 16  4  0  0  0  0
  4  5  4  0  0  0  0
  5  6  1  0  0  0  0
  5 14  4  0  0  0  0
  6  7  1  0  0  0  0
  7  8  1  0  0  0  0
  8  9  1  0  0  0  0
  8 21  1  0  0  0  0
  9 10  1  0  0  0  0
 10 11  4  0  0  0  0
 10 20  4  0  0  0  0
 11 12  1  0  0  0  0
 11 17  4  0  0  0  0
 12 13  1  0  0  0  0
 13 14  1  0  0  0  0
 14 15  4  0  0  0  0
 15 16  4  0  0  0  0
 17 18  4  0  0  0  0
 18 19  4  0  0  0  0
 19 20  4  0  0  0  0
M  END
>  <Name_Molregno>
594401

>  <DOPAMINE D1>
5.76

>  <DOPAMINE D2>
5

>  <DOPAMINE D3>
5

>  <DOPAMINE D4>
5

>  <DOPAMINE D5>
5.82

$$$$
594402
  Marvin  02231216192D 0   1.00000     0.00000     0

 20 23  0  0  1  0  0  0  0  0999 V2000
    5.3222    0.9297    0.0000 O   0  0  0  0  0  0  0  0  0
    5.3222    1.7547    0.0000 C   0  0  0  0  0  0  0  0  0
    4.6078    0.5172    0.0000 C   0  0  0  0  0  0  0  0  0
    4.6078   -0.3078    0.0000 C   0  0  0  0  0  0  0  0  0
    3.8933   -0.7203    0.0000 C   0  0  0  0  0  0  0  0  0
    3.8933   -1.5453    0.0000 C   0  0  0  0  0  0  0  0  0
    3.1788   -1.9578    0.0000 C   0  0  0  0  0  0  0  0  0
    2.4644   -1.5453    0.0000 N   0  0  0  0  0  0  0  0  0
    2.4644   -0.7203    0.0000 C   0  0  0  0  0  0  0  0  0
    3.1788   -0.3078    0.0000 C   0  0  0  0  0  0  0  0  0
    3.1788    0.5172    0.0000 C   0  0  0  0  0  0  0  0  0
    3.8933    0.9297    0.0000 C   0  0  0  0  0  0  0  0  0
    1.7499   -0.3078    0.0000 C   0  0  0  0  0  0  0  0  0
    1.0354   -0.7203    0.0000 C   0  0  0  0  0  0  0  0  0
    1.0354   -1.5453    0.0000 C   0  0  0  0  0  0  0  0  0
    1.7499   -1.9578    0.0000 C   0  0  0  0  0  0  0  0  0
    0.3209   -0.3078    0.0000 C   0  0  0  0  0  0  0  0  0
    0.3209    0.5172    0.0000 C   0  0  0  0  0  0  0  0  0
    1.0354    0.9297    0.0000 C   0  0  0  0  0  0  0  0  0
    1.7499    0.5172    0.0000 C   0  0  0  0  0  0  0  0  0
  1  2  1  0  0  0  0
  1  3  1  0  0  0  0
  3  4  4  0  0  0  0
  3 12  4  0  0  0  0
  4  5  4  0  0  0  0
  5  6  1  0  0  0  0
  5 10  4  0  0  0  0
  6  7  1  0  0  0  0
  7  8  1  0  0  0  0
  8  9  1  0  0  0  0
  8 16  1  0  0  0  0
  9 10  1  0  0  0  0
  9 13  1  0  0  0  0
 10 11  4  0  0  0  0
 11 12  4  0  0  0  0
 13 14  4  0  0  0  0
 13 20  4  0  0  0  0
 14 15  1  0  0  0  0
 14 17  4  0  0  0  0
 15 16  1  0  0  0  0
 17 18  4  0  0  0  0
 18 19  4  0  0  0  0
 19 20  4  0  0  0  0
M  END
>  <Name_Molregno>
594402

>  <DOPAMINE D1>
5.67

>  <DOPAMINE D2>
5

>  <DOPAMINE D3>
5

>  <DOPAMINE D4>
5

>  <DOPAMINE D5>
5

$$$$
594403
  Marvin  02231216192D 0   1.00000     0.00000     0

 19 22  0  0  1  0  0  0  0  0999 V2000
    5.3389    0.0219    0.0000 O   0  0  0  0  0  0  0  0  0
    4.6244   -0.3906    0.0000 C   0  0  0  0  0  0  0  0  0
    4.6244   -1.2156    0.0000 C   0  0  0  0  0  0  0  0  0
    3.9099   -1.6281    0.0000 C   0  0  0  0  0  0  0  0  0
    3.9099   -2.4531    0.0000 C   0  0  0  0  0  0  0  0  0
    3.1955   -2.8656    0.0000 C   0  0  0  0  0  0  0  0  0
    2.4810   -2.4531    0.0000 N   0  0  0  0  0  0  0  0  0
    2.4810   -1.6281    0.0000 C   0  0  0  0  0  0  0  0  0
    3.1955   -1.2156    0.0000 C   0  0  0  0  0  0  0  0  0
    3.1955   -0.3906    0.0000 C   0  0  0  0  0  0  0  0  0
    3.9099    0.0219    0.0000 C   0  0  0  0  0  0  0  0  0
    1.7665   -1.2156    0.0000 C   0  0  0  0  0  0  0  0  0
    1.0520   -1.6281    0.0000 C   0  0  0  0  0  0  0  0  0
    1.0520   -2.4531    0.0000 C   0  0  0  0  0  0  0  0  0
    1.7665   -2.8656    0.0000 C   0  0  0  0  0  0  0  0  0
    0.3376   -1.2156    0.0000 C   0  0  0  0  0  0  0  0  0
    0.3376   -0.3906    0.0000 C   0  0  0  0  0  0  0  0  0
    1.0520    0.0219    0.0000 C   0  0  0  0  0  0  0  0  0
    1.7665   -0.3906    0.0000 C   0  0  0  0  0  0  0  0  0
  1  2  1  0  0  0  0
  2  3  4  0  0  0  0
  2 11  4  0  0  0  0
  3  4  4  0  0  0  0
  4  5  1  0  0  0  0
  4  9  4  0  0  0  0
  5  6  1  0  0  0  0
  6  7  1  0  0  0  0
  7  8  1  0  0  0  0
  7 15  1  0  0  0  0
  8  9  1  0  0  0  0
  8 12  1  0  0  0  0
  9 10  4  0  0  0  0
 10 11  4  0  0  0  0
 12 13  4  0  0  0  0
 12 19  4  0  0  0  0
 13 14  1  0  0  0  0
 13 16  4  0  0  0  0
 14 15  1  0  0  0  0
 16 17  4  0  0  0  0
 17 18  4  0  0  0  0
 18 19  4  0  0  0  0
M  END
>  <Name_Molregno>
594403

>  <DOPAMINE D1>
5

>  <DOPAMINE D2>
5

>  <DOPAMINE D3>
5

>  <DOPAMINE D4>
5

>  <DOPAMINE D5>
5

$$$$
594448
  Marvin  02231216192D 0   1.00000     0.00000     0

 24 27  0  0  1  0  0  0  0  0999 V2000
   -0.1249   -0.5370    0.0000 O   0  0  0  0  0  0  0  0  0
    0.6852   -0.6929    0.0000 C   0  0  0  0  0  0  0  0  0
   -0.3950    0.2426    0.0000 C   0  0  0  0  0  0  0  0  0
   -1.2051    0.3985    0.0000 C   0  0  0  0  0  0  0  0  0
   -1.4751    1.1780    0.0000 C   0  0  0  0  0  0  0  0  0
   -2.2853    1.3340    0.0000 C   0  0  0  0  0  0  0  0  0
   -2.8254    0.7103    0.0000 C   0  0  0  0  0  0  0  0  0
   -2.5553   -0.0692    0.0000 N   0  0  0  0  0  0  0  0  0
   -1.7452   -0.2251    0.0000 C   0  0  0  0  0  0  0  0  0
   -3.0954   -0.6929    0.0000 C   0  0  0  0  0  0  0  0  0
   -3.9055   -0.5370    0.0000 C   0  0  0  0  0  0  0  0  0
   -4.1756    0.2426    0.0000 C   0  0  0  0  0  0  0  0  0
   -4.9857    0.3985    0.0000 C   0  0  0  0  0  0  0  0  0
   -5.2558    1.1780    0.0000 C   0  0  0  0  0  0  0  0  0
   -6.0659    1.3340    0.0000 O   0  0  0  0  0  0  0  0  0
   -6.6060    0.7103    0.0000 C   0  0  0  0  0  0  0  0  0
   -4.7157    1.8017    0.0000 C   0  0  0  0  0  0  0  0  0
   -4.9857    2.5812    0.0000 O   0  0  0  0  0  0  0  0  0
   -3.9055    1.6458    0.0000 C   0  0  0  0  0  0  0  0  0
   -3.6355    0.8662    0.0000 C   0  0  0  0  0  0  0  0  0
   -0.9351    1.8017    0.0000 C   0  0  0  0  0  0  0  0  0
   -0.1249    1.6458    0.0000 C   0  0  0  0  0  0  0  0  0
    0.1451    0.8662    0.0000 C   0  0  0  0  0  0  0  0  0
    0.9553    0.7103    0.0000 O   0  0  0  0  0  0  0  0  0
  1  2  1  0  0  0  0
  1  3  1  0  0  0  0
  3  4  4  0  0  0  0
  3 23  4  0  0  0  0
  4  5  4  0  0  0  0
  4  9  1  0  0  0  0
  5  6  1  0  0  0  0
  5 21  4  0  0  0  0
  6  7  1  0  0  0  0
  7  8  1  0  0  0  0
  7 20  1  0  0  0  0
  8  9  1  0  0  0  0
  8 10  1  0  0  0  0
 10 11  1  0  0  0  0
 11 12  1  0  0  0  0
 12 13  4  0  0  0  0
 12 20  4  0  0  0  0
 13 14  4  0  0  0  0
 14 15  1  0  0  0  0
 14 17  4  0  0  0  0
 15 16  1  0  0  0  0
 17 18  1  0  0  0  0
 17 19  4  0  0  0  0
 19 20  4  0  0  0  0
 21 22  4  0  0  0  0
 22 23  4  0  0  0  0
 23 24  1  0  0  0  0
M  END
>  <Name_Molregno>
594448

>  <5-HT1A>
6.84

>  <5-HT1B>
5.16

>  <5-HT1D>
5

>  <5-HT1E>
5

>  <5-HT2A>
5

>  <5-HT3>
5

>  <5-HT5>
5

>  <5-HT6>
5

>  <5-HT7>
5

>  <Alpha-1A>
5

>  <Alpha-1B>
5

>  <Alpha-2A>
5

>  <Alpha-2B>
5.16

>  <Alpha-2C>
6.67

>  <Beta-1>
5

>  <Beta-2>
5

>  <DOPAMINE D1>
8.23

>  <DOPAMINE D2>
6.01

>  <DOPAMINE D4>
5.43

>  <DOPAMINE D5>
8.36

>  <Dopamine transporter>
5

>  <HISTAMINE H1>
5

>  <HISTAMINE H2>
5

>  <HISTAMINE H4>
5

>  <Muscarinic acetylcholine receptor M2>
5

>  <Muscarinic acetylcholine receptor M5>
5

>  <Norepinephrine transporter>
5

>  <Serotonin transporter>
5

$$$$
594449
  Marvin  02231216192D 0   1.00000     0.00000     0

 20 23  0  0  1  0  0  0  0  0999 V2000
   -0.0381   -0.5723    0.0000 O   0  0  0  0  0  0  0  0  0
   -0.3081   -1.3518    0.0000 C   0  0  0  0  0  0  0  0  0
    0.7721   -0.4163    0.0000 C   0  0  0  0  0  0  0  0  0
    1.0421    0.3632    0.0000 C   0  0  0  0  0  0  0  0  0
    1.8522    0.5191    0.0000 C   0  0  0  0  0  0  0  0  0
    2.1223    1.2987    0.0000 C   0  0  0  0  0  0  0  0  0
    2.9324    1.4546    0.0000 C   0  0  0  0  0  0  0  0  0
    3.4725    0.8309    0.0000 N   0  0  0  0  0  0  0  0  0
    3.2025    0.0514    0.0000 C   0  0  0  0  0  0  0  0  0
    3.7426   -0.5723    0.0000 C   0  0  0  0  0  0  0  0  0
    4.5527   -0.4163    0.0000 C   0  0  0  0  0  0  0  0  0
    4.8227    0.3632    0.0000 C   0  0  0  0  0  0  0  0  0
    4.2826    0.9868    0.0000 C   0  0  0  0  0  0  0  0  0
    5.6329    0.5191    0.0000 C   0  0  0  0  0  0  0  0  0
    6.1730   -0.1045    0.0000 C   0  0  0  0  0  0  0  0  0
    5.9029   -0.8841    0.0000 C   0  0  0  0  0  0  0  0  0
    5.0928   -1.0400    0.0000 C   0  0  0  0  0  0  0  0  0
    2.3923   -0.1045    0.0000 C   0  0  0  0  0  0  0  0  0
    2.1223   -0.8841    0.0000 C   0  0  0  0  0  0  0  0  0
    1.3122   -1.0400    0.0000 C   0  0  0  0  0  0  0  0  0
  1  2  1  0  0  0  0
  1  3  1  0  0  0  0
  3  4  4  0  0  0  0
  3 20  4  0  0  0  0
  4  5  4  0  0  0  0
  5  6  1  0  0  0  0
  5 18  4  0  0  0  0
  6  7  1  0  0  0  0
  7  8  1  0  0  0  0
  8  9  1  0  0  0  0
  8 13  1  0  0  0  0
  9 10  1  0  0  0  0
  9 18  1  0  0  0  0
 10 11  1  0  0  0  0
 11 12  4  0  0  0  0
 11 17  4  0  0  0  0
 12 13  1  0  0  0  0
 12 14  4  0  0  0  0
 14 15  4  0  0  0  0
 15 16  4  0  0  0  0
 16 17  4  0  0  0  0
 18 19  4  0  0  0  0
 19 20  4  0  0  0  0
M  END
>  <Name_Molregno>
594449

>  <DOPAMINE D1>
6.74

>  <DOPAMINE D2>
6.49

>  <DOPAMINE D3>
6.6

>  <DOPAMINE D4>
5.59

>  <DOPAMINE D5>
6.73

$$$$
594450
  Marvin  02231216192D 0   1.00000     0.00000     0

 20 22  0  0  0  0  0  0  0  0999 V2000
   -0.2117    0.6176    0.0000 O   0  0  0  0  0  0  0  0  0
    0.5985    0.4617    0.0000 C   0  0  0  0  0  0  0  0  0
    1.1386    1.0854    0.0000 C   0  0  0  0  0  0  0  0  0
    1.9487    0.9295    0.0000 C   0  0  0  0  0  0  0  0  0
    2.4888    1.5531    0.0000 C   0  0  0  0  0  0  0  0  0
    3.2989    1.3972    0.0000 C   0  0  0  0  0  0  0  0  0
    3.8390    2.0208    0.0000 N   0  0  0  0  0  0  0  0  0
    4.6491    1.8649    0.0000 C   0  0  0  0  0  0  0  0  0
    4.9192    1.0854    0.0000 C   0  0  0  0  0  0  0  0  0
    4.3791    0.4617    0.0000 C   0  0  0  0  0  0  0  0  0
    3.5690    0.6176    0.0000 C   0  0  0  0  0  0  0  0  0
    3.0289   -0.0060    0.0000 C   0  0  0  0  0  0  0  0  0
    2.2187    0.1499    0.0000 C   0  0  0  0  0  0  0  0  0
    1.6787   -0.4737    0.0000 C   0  0  0  0  0  0  0  0  0
    0.8685   -0.3178    0.0000 C   0  0  0  0  0  0  0  0  0
    4.6491   -0.3178    0.0000 C   0  0  0  0  0  0  0  0  0
    5.4593   -0.4737    0.0000 C   0  0  0  0  0  0  0  0  0
    5.9994    0.1499    0.0000 C   0  0  0  0  0  0  0  0  0
    5.7293    0.9295    0.0000 C   0  0  0  0  0  0  0  0  0
    3.5690    2.8004    0.0000 C   0  0  0  0  0  0  0  0  0
  1  2  1  0  0  0  0
  2  3  4  0  0  0  0
  2 15  4  0  0  0  0
  3  4  4  0  0  0  0
  4  5  1  0  0  0  0
  4 13  4  0  0  0  0
  5  6  1  0  0  0  0
  6  7  1  0  0  0  0
  7  8  1  0  0  0  0
  7 20  1  0  0  0  0
  8  9  1  0  0  0  0
  9 10  4  0  0  0  0
  9 19  4  0  0  0  0
 10 11  1  0  0  0  0
 10 16  4  0  0  0  0
 11 12  1  0  0  0  0
 12 13  1  0  0  0  0
 13 14  4  0  0  0  0
 14 15  4  0  0  0  0
 16 17  4  0  0  0  0
 17 18  4  0  0  0  0
 18 19  4  0  0  0  0
M  END
>  <Name_Molregno>
594450

>  <DOPAMINE D1>
5

>  <DOPAMINE D2>
5

>  <DOPAMINE D3>
5

>  <DOPAMINE D4>
5

>  <DOPAMINE D5>
5

$$$$
594455
  Marvin  02231216192D 0   1.00000     0.00000     0

 20 23  0  0  1  0  0  0  0  0999 V2000
   -0.2086    1.0010    0.0000 O   0  0  0  0  0  0  0  0  0
   -0.2327    1.8256    0.0000 C   0  0  0  0  0  0  0  0  0
   -0.9107    0.5678    0.0000 C   0  0  0  0  0  0  0  0  0
   -0.8866   -0.2569    0.0000 C   0  0  0  0  0  0  0  0  0
   -1.5887   -0.6901    0.0000 C   0  0  0  0  0  0  0  0  0
   -1.4420   -1.5019    0.0000 C   0  0  0  0  0  0  0  0  0
   -1.9852   -2.1228    0.0000 C   0  0  0  0  0  0  0  0  0
   -2.8094   -2.0852    0.0000 C   0  0  0  0  0  0  0  0  0
   -3.2938   -1.4175    0.0000 N   0  0  0  0  0  0  0  0  0
   -3.0738   -0.6224    0.0000 C   0  0  0  0  0  0  0  0  0
   -2.3149   -0.2986    0.0000 C   0  0  0  0  0  0  0  0  0
   -2.3390    0.5260    0.0000 C   0  0  0  0  0  0  0  0  0
   -1.6369    0.9592    0.0000 C   0  0  0  0  0  0  0  0  0
   -3.7620   -0.1674    0.0000 C   0  0  0  0  0  0  0  0  0
   -4.4073   -0.6813    0.0000 C   0  0  0  0  0  0  0  0  0
   -4.1180   -1.4539    0.0000 C   0  0  0  0  0  0  0  0  0
   -5.1751   -0.3794    0.0000 C   0  0  0  0  0  0  0  0  0
   -5.2975    0.4365    0.0000 C   0  0  0  0  0  0  0  0  0
   -4.6521    0.9504    0.0000 C   0  0  0  0  0  0  0  0  0
   -3.8844    0.6485    0.0000 C   0  0  0  0  0  0  0  0  0
  1  2  1  0  0  0  0
  1  3  1  0  0  0  0
  3  4  4  0  0  0  0
  3 13  4  0  0  0  0
  4  5  4  0  0  0  0
  5  6  1  0  0  0  0
  5 11  4  0  0  0  0
  6  7  1  0  0  0  0
  7  8  1  0  0  0  0
  8  9  1  0  0  0  0
  9 10  1  0  0  0  0
  9 16  1  0  0  0  0
 10 11  1  0  0  0  0
 10 14  1  0  0  0  0
 11 12  4  0  0  0  0
 12 13  4  0  0  0  0
 14 15  4  0  0  0  0
 14 20  4  0  0  0  0
 15 16  1  0  0  0  0
 15 17  4  0  0  0  0
 17 18  4  0  0  0  0
 18 19  4  0  0  0  0
 19 20  4  0  0  0  0
M  END
>  <Name_Molregno>
594455

>  <DOPAMINE D1>
5

>  <DOPAMINE D2>
5

>  <DOPAMINE D3>
5

>  <DOPAMINE D4>
5

>  <DOPAMINE D5>
5

$$$$
594456
  Marvin  02231216192D 0   1.00000     0.00000     0

 21 23  0  0  0  0  0  0  0  0999 V2000
   -5.5811   -0.8983    0.0000 O   0  0  0  0  0  0  0  0  0
   -5.5811   -1.7233    0.0000 C   0  0  0  0  0  0  0  0  0
   -4.8666   -0.4858    0.0000 C   0  0  0  0  0  0  0  0  0
   -4.8666    0.3392    0.0000 C   0  0  0  0  0  0  0  0  0
   -4.1521    0.7517    0.0000 C   0  0  0  0  0  0  0  0  0
   -4.1521    1.5767    0.0000 C   0  0  0  0  0  0  0  0  0
   -3.4377    1.9892    0.0000 C   0  0  0  0  0  0  0  0  0
   -2.7232    1.5767    0.0000 C   0  0  0  0  0  0  0  0  0
   -2.0087    1.9892    0.0000 N   0  0  0  0  0  0  0  0  0
   -1.2943    1.5767    0.0000 C   0  0  0  0  0  0  0  0  0
   -1.2943    0.7517    0.0000 C   0  0  0  0  0  0  0  0  0
   -2.0087    0.3392    0.0000 C   0  0  0  0  0  0  0  0  0
   -2.7232    0.7517    0.0000 C   0  0  0  0  0  0  0  0  0
   -3.4377    0.3392    0.0000 C   0  0  0  0  0  0  0  0  0
   -3.4377   -0.4858    0.0000 C   0  0  0  0  0  0  0  0  0
   -4.1521   -0.8983    0.0000 C   0  0  0  0  0  0  0  0  0
   -2.0087   -0.4858    0.0000 C   0  0  0  0  0  0  0  0  0
   -1.2943   -0.8983    0.0000 C   0  0  0  0  0  0  0  0  0
   -0.5798   -0.4858    0.0000 C   0  0  0  0  0  0  0  0  0
   -0.5798    0.3392    0.0000 C   0  0  0  0  0  0  0  0  0
   -2.0087    2.8142    0.0000 C   0  0  0  0  0  0  0  0  0
  1  2  1  0  0  0  0
  1  3  1  0  0  0  0
  3  4  4  0  0  0  0
  3 16  4  0  0  0  0
  4  5  4  0  0  0  0
  5  6  1  0  0  0  0
  5 14  4  0  0  0  0
  6  7  1  0  0  0  0
  7  8  1  0  0  0  0
  8  9  1  0  0  0  0
  9 10  1  0  0  0  0
  9 21  1  0  0  0  0
 10 11  1  0  0  0  0
 11 12  4  0  0  0  0
 11 20  4  0  0  0  0
 12 13  1  0  0  0  0
 12 17  4  0  0  0  0
 13 14  1  0  0  0  0
 14 15  4  0  0  0  0
 15 16  4  0  0  0  0
 17 18  4  0  0  0  0
 18 19  4  0  0  0  0
 19 20  4  0  0  0  0
M  END
>  <Name_Molregno>
594456

>  <DOPAMINE D1>
5.9

>  <DOPAMINE D2>
5

>  <DOPAMINE D3>
5

>  <DOPAMINE D4>
5

>  <DOPAMINE D5>
5

$$$$
594464
  Marvin  02231216192D 0   1.00000     0.00000     0

 20 22  0  0  0  0  0  0  0  0999 V2000
    0.4108   -1.2724    0.0000 O   0  0  0  0  0  0  0  0  0
    1.1252   -0.8599    0.0000 C   0  0  0  0  0  0  0  0  0
    1.1252   -0.0349    0.0000 C   0  0  0  0  0  0  0  0  0
    1.8397    0.3776    0.0000 C   0  0  0  0  0  0  0  0  0
    1.8397    1.2026    0.0000 C   0  0  0  0  0  0  0  0  0
    2.5542    1.6151    0.0000 C   0  0  0  0  0  0  0  0  0
    3.2686    1.2026    0.0000 C   0  0  0  0  0  0  0  0  0
    3.9831    1.6151    0.0000 N   0  0  0  0  0  0  0  0  0
    4.6976    1.2026    0.0000 C   0  0  0  0  0  0  0  0  0
    4.6976    0.3776    0.0000 C   0  0  0  0  0  0  0  0  0
    3.9831   -0.0349    0.0000 C   0  0  0  0  0  0  0  0  0
    3.2686    0.3776    0.0000 C   0  0  0  0  0  0  0  0  0
    2.5542   -0.0349    0.0000 C   0  0  0  0  0  0  0  0  0
    2.5542   -0.8599    0.0000 C   0  0  0  0  0  0  0  0  0
    1.8397   -1.2724    0.0000 C   0  0  0  0  0  0  0  0  0
    3.9831   -0.8599    0.0000 C   0  0  0  0  0  0  0  0  0
    4.6976   -1.2724    0.0000 C   0  0  0  0  0  0  0  0  0
    5.4120   -0.8599    0.0000 C   0  0  0  0  0  0  0  0  0
    5.4120   -0.0349    0.0000 C   0  0  0  0  0  0  0  0  0
    3.9831    2.4401    0.0000 C   0  0  0  0  0  0  0  0  0
  1  2  1  0  0  0  0
  2  3  4  0  0  0  0
  2 15  4  0  0  0  0
  3  4  4  0  0  0  0
  4  5  1  0  0  0  0
  4 13  4  0  0  0  0
  5  6  1  0  0  0  0
  6  7  1  0  0  0  0
  7  8  1  0  0  0  0
  8  9  1  0  0  0  0
  8 20  1  0  0  0  0
  9 10  1  0  0  0  0
 10 11  4  0  0  0  0
 10 19  4  0  0  0  0
 11 12  1  0  0  0  0
 11 16  4  0  0  0  0
 12 13  1  0  0  0  0
 13 14  4  0  0  0  0
 14 15  4  0  0  0  0
 16 17  4  0  0  0  0
 17 18  4  0  0  0  0
 18 19  4  0  0  0  0
M  END
>  <Name_Molregno>
594464

>  <DOPAMINE D1>
5.68

>  <DOPAMINE D2>
5

>  <DOPAMINE D3>
5

>  <DOPAMINE D4>
5

>  <DOPAMINE D5>
5.74

$$$$
594617
  Marvin  02231216192D 0   1.00000     0.00000     0

 26 29  0  0  1  0  0  0  0  0999 V2000
   -0.4854   -0.6621    0.0000 I   0  0  0  0  0  0  0  0  0
    0.2291   -1.0746    0.0000 C   0  0  0  0  0  0  0  0  0
    0.9436   -0.6621    0.0000 C   0  0  0  0  0  0  0  0  0
    1.6580   -1.0746    0.0000 C   0  0  0  0  0  0  0  0  0
    1.6580   -1.8996    0.0000 C   0  0  0  0  0  0  0  0  0
    0.9436   -2.3121    0.0000 C   0  0  0  0  0  0  0  0  0
    0.2291   -1.8996    0.0000 C   0  0  0  0  0  0  0  0  0
   -0.4854   -2.3121    0.0000 S   0  0  0  0  0  0  0  0  0
   -0.8979   -1.5976    0.0000 O   0  0  0  0  0  0  0  0  0
   -0.0729   -3.0266    0.0000 O   0  0  0  0  0  0  0  0  0
   -1.1998   -2.7246    0.0000 N   0  0  0  0  0  0  0  0  0
   -1.9143   -2.3121    0.0000 C   0  0  0  0  0  0  0  0  0
   -2.6288   -2.7246    0.0000 C   0  0  0  0  0  0  0  0  0
   -3.3433   -2.3121    0.0000 C   0  0  0  0  0  0  0  0  0
   -3.3433   -1.4871    0.0000 C   0  0  0  0  0  0  0  0  0
   -4.1279   -1.2321    0.0000 N   0  0  0  0  0  0  0  0  0
   -4.6128   -1.8996    0.0000 C   0  0  0  0  0  0  0  0  0
   -4.1279   -2.5670    0.0000 C   0  0  0  0  0  0  0  0  0
   -4.3828   -3.3516    0.0000 C   0  0  0  0  0  0  0  0  0
   -5.1898   -3.5232    0.0000 C   0  0  0  0  0  0  0  0  0
   -5.5254   -4.2768    0.0000 N   0  0  0  0  0  0  0  0  0
   -6.3458   -4.1906    0.0000 C   0  0  0  0  0  0  0  0  0
   -6.5174   -3.3836    0.0000 C   0  0  0  0  0  0  0  0  0
   -5.8029   -2.9711    0.0000 C   0  0  0  0  0  0  0  0  0
   -2.6288   -1.0746    0.0000 C   0  0  0  0  0  0  0  0  0
   -1.9143   -1.4871    0.0000 C   0  0  0  0  0  0  0  0  0
  1  2  1  0  0  0  0
  2  3  4  0  0  0  0
  2  7  4  0  0  0  0
  3  4  4  0  0  0  0
  4  5  4  0  0  0  0
  5  6  4  0  0  0  0
  6  7  4  0  0  0  0
  7  8  1  0  0  0  0
  8  9  2  0  0  0  0
  8 10  2  0  0  0  0
  8 11  1  0  0  0  0
 11 12  1  0  0  0  0
 12 13  4  0  0  0  0
 12 26  4  0  0  0  0
 13 14  4  0  0  0  0
 14 15  4  0  0  0  0
 14 18  4  0  0  0  0
 15 16  4  0  0  0  0
 15 25  4  0  0  0  0
 16 17  4  0  0  0  0
 17 18  4  0  0  0  0
 18 19  1  0  0  0  0
 19 20  1  0  0  0  0
 20 21  1  0  0  0  0
 20 24  1  0  0  0  0
 21 22  1  0  0  0  0
 22 23  1  0  0  0  0
 23 24  1  0  0  0  0
 25 26  4  0  0  0  0
M  STY  1   1 DAT
M  SAL   1  1  16
M  SDT   1 MRV_IMPLICIT_H                                        
M  SDD   1     0.0000    0.0000    DR    ALL  0       0  
M  SED   1 IMPL_H1
M  END
>  <Name_Molregno>
594617

>  <5-HT1A>
6.63

>  <5-HT1B>
8.03

>  <5-HT1D>
7.19

>  <5-HT2C>
6.63

>  <5-HT6>
9

>  <5-HT7>
6.48

>  <DOPAMINE D2>
5.7

>  <DOPAMINE D3>
5.3

>  <DOPAMINE D4>
5.3

$$$$
608576
  Marvin  02231216192D 0   1.00000     0.00000     0

 26 29  0  0  1  0  0  0  0  0999 V2000
    0.8469   -3.8121    0.0000 S   0  0  0  0  0  0  0  0  0
    1.5614   -3.3996    0.0000 C   0  0  0  0  0  0  0  0  0
    1.5614   -2.5746    0.0000 C   0  0  0  0  0  0  0  0  0
    0.8469   -2.1621    0.0000 N   0  0  0  0  0  0  0  0  0
    0.1324   -2.5746    0.0000 C   0  0  0  0  0  0  0  0  0
    0.1324   -3.3996    0.0000 C   0  0  0  0  0  0  0  0  0
   -0.5820   -3.8121    0.0000 C   0  0  0  0  0  0  0  0  0
   -1.2965   -3.3996    0.0000 C   0  0  0  0  0  0  0  0  0
   -1.2965   -2.5746    0.0000 C   0  0  0  0  0  0  0  0  0
   -0.5820   -2.1621    0.0000 C   0  0  0  0  0  0  0  0  0
    0.8469   -1.3371    0.0000 C   0  0  0  0  0  0  0  0  0
    0.1324   -0.9246    0.0000 C   0  0  0  0  0  0  0  0  0
    0.1324   -0.0996    0.0000 C   0  0  0  0  0  0  0  0  0
   -0.5820    0.3129    0.0000 N   0  0  0  0  0  0  0  0  0
   -0.5820    1.1379    0.0000 C   0  0  0  0  0  0  0  0  0
    0.1324    1.5504    0.0000 C   0  0  0  0  0  0  0  0  0
    0.8469    1.1379    0.0000 C   0  0  0  0  0  0  0  0  0
    0.8469    0.3129    0.0000 C   0  0  0  0  0  0  0  0  0
   -1.2965   -0.0996    0.0000 C   0  0  0  0  0  0  0  0  0
    2.2758   -2.1621    0.0000 C   0  0  0  0  0  0  0  0  0
    2.9903   -2.5746    0.0000 C   0  0  0  0  0  0  0  0  0
    3.7048   -2.1621    0.0000 S   0  0  0  0  0  0  0  0  0
    3.7048   -1.3371    0.0000 O   0  0  0  0  0  0  0  0  0
    4.4193   -2.5746    0.0000 C   0  0  0  0  0  0  0  0  0
    2.9903   -3.3996    0.0000 C   0  0  0  0  0  0  0  0  0
    2.2758   -3.8121    0.0000 C   0  0  0  0  0  0  0  0  0
  1  2  1  0  0  0  0
  1  6  1  0  0  0  0
  2  3  4  0  0  0  0
  2 26  4  0  0  0  0
  3  4  1  0  0  0  0
  3 20  4  0  0  0  0
  4  5  1  0  0  0  0
  4 11  1  0  0  0  0
  5  6  4  0  0  0  0
  5 10  4  0  0  0  0
  6  7  4  0  0  0  0
  7  8  4  0  0  0  0
  8  9  4  0  0  0  0
  9 10  4  0  0  0  0
 11 12  1  0  0  0  0
 12 13  1  0  0  0  0
 13 14  1  0  0  0  0
 13 18  1  0  0  0  0
 14 15  1  0  0  0  0
 14 19  1  0  0  0  0
 15 16  1  0  0  0  0
 16 17  1  0  0  0  0
 17 18  1  0  0  0  0
 20 21  4  0  0  0  0
 21 22  1  0  0  0  0
 21 25  4  0  0  0  0
 22 23  2  0  0  0  0
 22 24  1  0  0  0  0
 25 26  4  0  0  0  0
M  END
>  <Name_Molregno>
608576

>  <5-HT1A>
6.76

>  <5-HT2A>
8.12

>  <5-HT2C>
6.8

>  <5-HT6>
6.42

>  <DOPAMINE D1>
6.35

>  <DOPAMINE D2>
7.31

>  <DOPAMINE D3>
7.51

>  <DOPAMINE D4>
8.04

>  <HISTAMINE H1>
8.74

>  <Muscarinic acetylcholine receptor M1>
8

>  <Muscarinic acetylcholine receptor M2>
7.82

>  <Muscarinic acetylcholine receptor M3>
7.05

>  <Muscarinic acetylcholine receptor M4>
7.72

>  <Muscarinic acetylcholine receptor M5>
7.22

$$$$
609001
  Marvin  02231216192D 0   1.00000     0.00000     0

 26 29  0  0  1  0  0  0  0  0999 V2000
   -0.4854   -0.6621    0.0000 Cl  0  0  0  0  0  0  0  0  0
    0.2291   -1.0746    0.0000 C   0  0  0  0  0  0  0  0  0
    0.9436   -0.6621    0.0000 C   0  0  0  0  0  0  0  0  0
    1.6580   -1.0746    0.0000 C   0  0  0  0  0  0  0  0  0
    1.6580   -1.8996    0.0000 C   0  0  0  0  0  0  0  0  0
    0.9436   -2.3121    0.0000 C   0  0  0  0  0  0  0  0  0
    0.2291   -1.8996    0.0000 C   0  0  0  0  0  0  0  0  0
   -0.4854   -2.3121    0.0000 S   0  0  0  0  0  0  0  0  0
   -0.8979   -1.5976    0.0000 O   0  0  0  0  0  0  0  0  0
   -0.0729   -3.0266    0.0000 O   0  0  0  0  0  0  0  0  0
   -1.1998   -2.7246    0.0000 N   0  0  0  0  0  0  0  0  0
   -1.9143   -2.3121    0.0000 C   0  0  0  0  0  0  0  0  0
   -2.6288   -2.7246    0.0000 C   0  0  0  0  0  0  0  0  0
   -3.3433   -2.3121    0.0000 C   0  0  0  0  0  0  0  0  0
   -3.3433   -1.4871    0.0000 C   0  0  0  0  0  0  0  0  0
   -4.1279   -1.2321    0.0000 N   0  0  0  0  0  0  0  0  0
   -4.6128   -1.8996    0.0000 C   0  0  0  0  0  0  0  0  0
   -4.1279   -2.5670    0.0000 C   0  0  0  0  0  0  0  0  0
   -4.3828   -3.3516    0.0000 C   0  0  0  0  0  0  0  0  0
   -5.1898   -3.5232    0.0000 C   0  0  0  0  0  0  0  0  0
   -5.5254   -4.2768    0.0000 N   0  0  0  0  0  0  0  0  0
   -6.3458   -4.1906    0.0000 C   0  0  0  0  0  0  0  0  0
   -6.5174   -3.3836    0.0000 C   0  0  0  0  0  0  0  0  0
   -5.8029   -2.9711    0.0000 C   0  0  0  0  0  0  0  0  0
   -2.6288   -1.0746    0.0000 C   0  0  0  0  0  0  0  0  0
   -1.9143   -1.4871    0.0000 C   0  0  0  0  0  0  0  0  0
  1  2  1  0  0  0  0
  2  3  4  0  0  0  0
  2  7  4  0  0  0  0
  3  4  4  0  0  0  0
  4  5  4  0  0  0  0
  5  6  4  0  0  0  0
  6  7  4  0  0  0  0
  7  8  1  0  0  0  0
  8  9  2  0  0  0  0
  8 10  2  0  0  0  0
  8 11  1  0  0  0  0
 11 12  1  0  0  0  0
 12 13  4  0  0  0  0
 12 26  4  0  0  0  0
 13 14  4  0  0  0  0
 14 15  4  0  0  0  0
 14 18  4  0  0  0  0
 15 16  4  0  0  0  0
 15 25  4  0  0  0  0
 16 17  4  0  0  0  0
 17 18  4  0  0  0  0
 18 19  1  0  0  0  0
 19 20  1  0  0  0  0
 20 21  1  0  0  0  0
 20 24  1  0  0  0  0
 21 22  1  0  0  0  0
 22 23  1  0  0  0  0
 23 24  1  0  0  0  0
 25 26  4  0  0  0  0
M  STY  1   1 DAT
M  SAL   1  1  16
M  SDT   1 MRV_IMPLICIT_H                                        
M  SDD   1     0.0000    0.0000    DR    ALL  0       0  
M  SED   1 IMPL_H1
M  END
>  <Name_Molregno>
609001

>  <5-HT1A>
6.26

>  <5-HT1B>
7.06

>  <5-HT1D>
6

>  <5-HT2C>
6.25

>  <5-HT6>
8.52

>  <DOPAMINE D2>
5.3

>  <DOPAMINE D3>
5.3

>  <DOPAMINE D4>
5.3

$$$$
610059
  Marvin  02231216192D 0   1.00000     0.00000     0

 27 30  0  0  1  0  0  0  0  0999 V2000
   -0.5134   -0.5339    0.0000 Cl  0  0  0  0  0  0  0  0  0
    0.2011   -0.9464    0.0000 C   0  0  0  0  0  0  0  0  0
    0.9155   -0.5339    0.0000 C   0  0  0  0  0  0  0  0  0
    1.6300   -0.9464    0.0000 C   0  0  0  0  0  0  0  0  0
    1.6300   -1.7714    0.0000 C   0  0  0  0  0  0  0  0  0
    0.9155   -2.1839    0.0000 C   0  0  0  0  0  0  0  0  0
    0.2011   -1.7714    0.0000 C   0  0  0  0  0  0  0  0  0
   -0.5134   -2.1839    0.0000 S   0  0  0  0  0  0  0  0  0
   -0.9259   -1.4694    0.0000 O   0  0  0  0  0  0  0  0  0
   -0.1009   -2.8983    0.0000 O   0  0  0  0  0  0  0  0  0
   -1.2279   -2.5964    0.0000 N   0  0  0  0  0  0  0  0  0
   -1.9424   -2.1839    0.0000 C   0  0  0  0  0  0  0  0  0
   -2.6568   -2.5964    0.0000 C   0  0  0  0  0  0  0  0  0
   -3.3713   -2.1839    0.0000 C   0  0  0  0  0  0  0  0  0
   -3.3713   -1.3589    0.0000 C   0  0  0  0  0  0  0  0  0
   -4.1559   -1.1039    0.0000 N   0  0  0  0  0  0  0  0  0
   -4.6408   -1.7714    0.0000 C   0  0  0  0  0  0  0  0  0
   -4.1559   -2.4388    0.0000 C   0  0  0  0  0  0  0  0  0
   -4.4109   -3.2234    0.0000 C   0  0  0  0  0  0  0  0  0
   -5.2178   -3.3950    0.0000 C   0  0  0  0  0  0  0  0  0
   -5.5534   -4.1486    0.0000 N   0  0  0  0  0  0  0  0  0
   -6.3739   -4.0624    0.0000 C   0  0  0  0  0  0  0  0  0
   -6.5454   -3.2554    0.0000 C   0  0  0  0  0  0  0  0  0
   -5.8309   -2.8429    0.0000 C   0  0  0  0  0  0  0  0  0
   -5.1409   -4.8631    0.0000 C   0  0  0  0  0  0  0  0  0
   -2.6568   -0.9464    0.0000 C   0  0  0  0  0  0  0  0  0
   -1.9424   -1.3589    0.0000 C   0  0  0  0  0  0  0  0  0
  1  2  1  0  0  0  0
  2  3  4  0  0  0  0
  2  7  4  0  0  0  0
  3  4  4  0  0  0  0
  4  5  4  0  0  0  0
  5  6  4  0  0  0  0
  6  7  4  0  0  0  0
  7  8  1  0  0  0  0
  8  9  2  0  0  0  0
  8 10  2  0  0  0  0
  8 11  1  0  0  0  0
 11 12  1  0  0  0  0
 12 13  4  0  0  0  0
 12 27  4  0  0  0  0
 13 14  4  0  0  0  0
 14 15  4  0  0  0  0
 14 18  4  0  0  0  0
 15 16  4  0  0  0  0
 15 26  4  0  0  0  0
 16 17  4  0  0  0  0
 17 18  4  0  0  0  0
 18 19  1  0  0  0  0
 19 20  1  0  0  0  0
 20 21  1  0  0  0  0
 20 24  1  0  0  0  0
 21 22  1  0  0  0  0
 21 25  1  0  0  0  0
 22 23  1  0  0  0  0
 23 24  1  0  0  0  0
 26 27  4  0  0  0  0
M  STY  1   1 DAT
M  SAL   1  1  16
M  SDT   1 MRV_IMPLICIT_H                                        
M  SDD   1     0.0000    0.0000    DR    ALL  0       0  
M  SED   1 IMPL_H1
M  END
>  <Name_Molregno>
610059

>  <5-HT1A>
6.77

>  <5-HT1B>
7.82

>  <5-HT1D>
7.53

>  <5-HT2A>
6.44

>  <5-HT2C>
6.54

>  <5-HT6>
8.33

>  <5-HT7>
7.13

>  <DOPAMINE D2>
5.7

>  <DOPAMINE D3>
6

>  <DOPAMINE D4>
5.3

$$$$
610060
  Marvin  02231216192D 0   1.00000     0.00000     0

 27 30  0  0  1  0  0  0  0  0999 V2000
    9.2263   -0.0100    0.0000 Cl  0  0  0  0  0  0  0  0  0
    8.5119    0.4025    0.0000 C   0  0  0  0  0  0  0  0  0
    7.7974   -0.0100    0.0000 C   0  0  0  0  0  0  0  0  0
    7.0829    0.4025    0.0000 C   0  0  0  0  0  0  0  0  0
    6.3685   -0.0100    0.0000 S   0  0  0  0  0  0  0  0  0
    5.9560    0.7045    0.0000 O   0  0  0  0  0  0  0  0  0
    6.7810   -0.7245    0.0000 O   0  0  0  0  0  0  0  0  0
    5.6540   -0.4225    0.0000 N   0  0  0  0  0  0  0  0  0
    4.9395   -0.0100    0.0000 C   0  0  0  0  0  0  0  0  0
    4.2250   -0.4225    0.0000 C   0  0  0  0  0  0  0  0  0
    3.5106   -0.0100    0.0000 C   0  0  0  0  0  0  0  0  0
    3.5106    0.8150    0.0000 C   0  0  0  0  0  0  0  0  0
    2.7260    1.0699    0.0000 N   0  0  0  0  0  0  0  0  0
    2.2410    0.4025    0.0000 C   0  0  0  0  0  0  0  0  0
    2.7260   -0.2649    0.0000 C   0  0  0  0  0  0  0  0  0
    2.4710   -1.0496    0.0000 C   0  0  0  0  0  0  0  0  0
    1.6640   -1.2211    0.0000 C   0  0  0  0  0  0  0  0  0
    1.3285   -1.9748    0.0000 N   0  0  0  0  0  0  0  0  0
    0.5080   -1.8885    0.0000 C   0  0  0  0  0  0  0  0  0
    0.3365   -1.0816    0.0000 C   0  0  0  0  0  0  0  0  0
    1.0509   -0.6691    0.0000 C   0  0  0  0  0  0  0  0  0
    1.7410   -2.6892    0.0000 C   0  0  0  0  0  0  0  0  0
    4.2250    1.2275    0.0000 C   0  0  0  0  0  0  0  0  0
    4.9395    0.8150    0.0000 C   0  0  0  0  0  0  0  0  0
    7.0829    1.2275    0.0000 C   0  0  0  0  0  0  0  0  0
    7.7974    1.6400    0.0000 C   0  0  0  0  0  0  0  0  0
    8.5119    1.2275    0.0000 C   0  0  0  0  0  0  0  0  0
  1  2  1  0  0  0  0
  2  3  4  0  0  0  0
  2 27  4  0  0  0  0
  3  4  4  0  0  0  0
  4  5  1  0  0  0  0
  4 25  4  0  0  0  0
  5  6  2  0  0  0  0
  5  7  2  0  0  0  0
  5  8  1  0  0  0  0
  8  9  1  0  0  0  0
  9 10  4  0  0  0  0
  9 24  4  0  0  0  0
 10 11  4  0  0  0  0
 11 12  4  0  0  0  0
 11 15  4  0  0  0  0
 12 13  4  0  0  0  0
 12 23  4  0  0  0  0
 13 14  4  0  0  0  0
 14 15  4  0  0  0  0
 15 16  1  0  0  0  0
 16 17  1  0  0  0  0
 17 18  1  0  0  0  0
 17 21  1  0  0  0  0
 18 19  1  0  0  0  0
 18 22  1  0  0  0  0
 19 20  1  0  0  0  0
 20 21  1  0  0  0  0
 23 24  4  0  0  0  0
 25 26  4  0  0  0  0
 26 27  4  0  0  0  0
M  STY  1   1 DAT
M  SAL   1  1  13
M  SDT   1 MRV_IMPLICIT_H                                        
M  SDD   1     0.0000    0.0000    DR    ALL  0       0  
M  SED   1 IMPL_H1
M  END
>  <Name_Molregno>
610060

>  <5-HT1A>
6.7

>  <5-HT1B>
8.37

>  <5-HT1D>
8.33

>  <5-HT2A>
6.57

>  <5-HT2C>
6.64

>  <5-HT6>
8.68

>  <5-HT7>
7.62

>  <DOPAMINE D2>
5.7

>  <DOPAMINE D3>
6.03

>  <DOPAMINE D4>
5.3

$$$$
649562
  Marvin  02231216192D 0   1.00000     0.00000     0

 24 27  0  0  0  0  0  0  0  0999 V2000
    1.0618    2.5000    0.0000 I   0  0  0  0  0  0  0  0  0
    1.5697    1.8499    0.0000 C   0  0  0  0  0  0  0  0  0
    2.3867    1.9647    0.0000 C   0  0  0  0  0  0  0  0  0
    2.8946    1.3146    0.0000 C   0  0  0  0  0  0  0  0  0
    2.5856    0.5497    0.0000 C   0  0  0  0  0  0  0  0  0
    1.7686    0.4349    0.0000 C   0  0  0  0  0  0  0  0  0
    1.2607    1.0850    0.0000 C   0  0  0  0  0  0  0  0  0
    3.0935   -0.1004    0.0000 C   0  0  0  0  0  0  0  0  0
    2.3651   -0.4877    0.0000 O   0  0  0  0  0  0  0  0  0
    3.6455    0.5127    0.0000 C   0  0  0  0  0  0  0  0  0
    4.4525    0.3411    0.0000 C   0  0  0  0  0  0  0  0  0
    4.7074   -0.4435    0.0000 N   0  0  0  0  0  0  0  0  0
    4.1554   -1.0566    0.0000 C   0  0  0  0  0  0  0  0  0
    3.3484   -0.8851    0.0000 C   0  0  0  0  0  0  0  0  0
    5.5144   -0.6150    0.0000 C   0  0  0  0  0  0  0  0  0
    5.7693   -1.3996    0.0000 C   0  0  0  0  0  0  0  0  0
    6.5540   -1.6546    0.0000 C   0  0  0  0  0  0  0  0  0
    7.2684   -1.2421    0.0000 C   0  0  0  0  0  0  0  0  0
    7.9829   -1.6546    0.0000 C   0  0  0  0  0  0  0  0  0
    7.9829   -2.4796    0.0000 C   0  0  0  0  0  0  0  0  0
    7.2684   -2.8921    0.0000 N   0  0  0  0  0  0  0  0  0
    6.5540   -2.4796    0.0000 C   0  0  0  0  0  0  0  0  0
    5.7693   -2.7345    0.0000 N   0  0  0  0  0  0  0  0  0
    5.2844   -2.0671    0.0000 C   0  0  0  0  0  0  0  0  0
  1  2  1  0  0  0  0
  2  3  4  0  0  0  0
  2  7  4  0  0  0  0
  3  4  4  0  0  0  0
  4  5  4  0  0  0  0
  5  6  4  0  0  0  0
  5  8  1  0  0  0  0
  6  7  4  0  0  0  0
  8  9  1  0  0  0  0
  8 10  1  0  0  0  0
  8 14  1  0  0  0  0
 10 11  1  0  0  0  0
 11 12  1  0  0  0  0
 12 13  1  0  0  0  0
 12 15  1  0  0  0  0
 13 14  1  0  0  0  0
 15 16  1  0  0  0  0
 16 17  4  0  0  0  0
 16 24  4  0  0  0  0
 17 18  4  0  0  0  0
 17 22  4  0  0  0  0
 18 19  4  0  0  0  0
 19 20  4  0  0  0  0
 20 21  4  0  0  0  0
 21 22  4  0  0  0  0
 22 23  4  0  0  0  0
 23 24  4  0  0  0  0
M  STY  1   1 DAT
M  SAL   1  1  23
M  SDT   1 MRV_IMPLICIT_H                                        
M  SDD   1     0.0000    0.0000    DR    ALL  0       0  
M  SED   1 IMPL_H1
M  END
>  <Name_Molregno>
649562

>  <DOPAMINE D2>
7.21

>  <DOPAMINE D3>
5.8

>  <DOPAMINE D4>
6.2

$$$$
649563
  Marvin  02231216192D 0   1.00000     0.00000     0

 25 28  0  0  0  0  0  0  0  0999 V2000
    1.0390    3.2783    0.0000 S   0  0  0  0  0  0  0  0  0
    0.2220    3.1635    0.0000 C   0  0  0  0  0  0  0  0  0
    1.5469    2.6282    0.0000 C   0  0  0  0  0  0  0  0  0
    2.3639    2.7430    0.0000 C   0  0  0  0  0  0  0  0  0
    2.8718    2.0929    0.0000 C   0  0  0  0  0  0  0  0  0
    2.5628    1.3280    0.0000 C   0  0  0  0  0  0  0  0  0
    1.7458    1.2132    0.0000 C   0  0  0  0  0  0  0  0  0
    1.2379    1.8633    0.0000 C   0  0  0  0  0  0  0  0  0
    3.0707    0.6779    0.0000 C   0  0  0  0  0  0  0  0  0
    2.3422    0.2906    0.0000 O   0  0  0  0  0  0  0  0  0
    3.6227    1.2910    0.0000 C   0  0  0  0  0  0  0  0  0
    4.4297    1.1194    0.0000 C   0  0  0  0  0  0  0  0  0
    4.6846    0.3348    0.0000 N   0  0  0  0  0  0  0  0  0
    4.1326   -0.2783    0.0000 C   0  0  0  0  0  0  0  0  0
    3.3256   -0.1068    0.0000 C   0  0  0  0  0  0  0  0  0
    5.4916    0.1633    0.0000 C   0  0  0  0  0  0  0  0  0
    5.7465   -0.6213    0.0000 C   0  0  0  0  0  0  0  0  0
    6.5311   -0.8763    0.0000 C   0  0  0  0  0  0  0  0  0
    7.2456   -0.4638    0.0000 C   0  0  0  0  0  0  0  0  0
    7.9601   -0.8763    0.0000 C   0  0  0  0  0  0  0  0  0
    7.9601   -1.7013    0.0000 C   0  0  0  0  0  0  0  0  0
    7.2456   -2.1138    0.0000 N   0  0  0  0  0  0  0  0  0
    6.5311   -1.7013    0.0000 C   0  0  0  0  0  0  0  0  0
    5.7465   -1.9562    0.0000 N   0  0  0  0  0  0  0  0  0
    5.2616   -1.2888    0.0000 C   0  0  0  0  0  0  0  0  0
  1  2  1  0  0  0  0
  1  3  1  0  0  0  0
  3  4  4  0  0  0  0
  3  8  4  0  0  0  0
  4  5  4  0  0  0  0
  5  6  4  0  0  0  0
  6  7  4  0  0  0  0
  6  9  1  0  0  0  0
  7  8  4  0  0  0  0
  9 10  1  0  0  0  0
  9 11  1  0  0  0  0
  9 15  1  0  0  0  0
 11 12  1  0  0  0  0
 12 13  1  0  0  0  0
 13 14  1  0  0  0  0
 13 16  1  0  0  0  0
 14 15  1  0  0  0  0
 16 17  1  0  0  0  0
 17 18  4  0  0  0  0
 17 25  4  0  0  0  0
 18 19  4  0  0  0  0
 18 23  4  0  0  0  0
 19 20  4  0  0  0  0
 20 21  4  0  0  0  0
 21 22  4  0  0  0  0
 22 23  4  0  0  0  0
 23 24  4  0  0  0  0
 24 25  4  0  0  0  0
M  STY  1   1 DAT
M  SAL   1  1  24
M  SDT   1 MRV_IMPLICIT_H                                        
M  SDD   1     0.0000    0.0000    DR    ALL  0       0  
M  SED   1 IMPL_H1
M  END
>  <Name_Molregno>
649563

>  <DOPAMINE D2>
6.6

>  <DOPAMINE D3>
5.31

>  <DOPAMINE D4>
6.03

$$$$
649564
  Marvin  02231216192D 0   1.00000     0.00000     0

 24 27  0  0  0  0  0  0  0  0999 V2000
    0.3635   -1.7916    0.0000 Br  0  0  0  0  0  0  0  0  0
    1.1387   -1.5095    0.0000 C   0  0  0  0  0  0  0  0  0
    1.2820   -0.6970    0.0000 C   0  0  0  0  0  0  0  0  0
    2.0572   -0.4148    0.0000 C   0  0  0  0  0  0  0  0  0
    2.6892   -0.9451    0.0000 C   0  0  0  0  0  0  0  0  0
    2.5459   -1.7576    0.0000 C   0  0  0  0  0  0  0  0  0
    1.7707   -2.0398    0.0000 C   0  0  0  0  0  0  0  0  0
    3.4644   -0.6630    0.0000 C   0  0  0  0  0  0  0  0  0
    3.6077   -1.4754    0.0000 O   0  0  0  0  0  0  0  0  0
    3.0519    0.0515    0.0000 C   0  0  0  0  0  0  0  0  0
    3.4644    0.7660    0.0000 C   0  0  0  0  0  0  0  0  0
    4.2894    0.7660    0.0000 N   0  0  0  0  0  0  0  0  0
    4.7019    0.0515    0.0000 C   0  0  0  0  0  0  0  0  0
    4.2894   -0.6630    0.0000 C   0  0  0  0  0  0  0  0  0
    4.7019    1.4804    0.0000 C   0  0  0  0  0  0  0  0  0
    5.5269    1.4804    0.0000 C   0  0  0  0  0  0  0  0  0
    6.0119    0.8130    0.0000 O   0  0  0  0  0  0  0  0  0
    6.7965    1.0679    0.0000 C   0  0  0  0  0  0  0  0  0
    6.7965    1.8929    0.0000 C   0  0  0  0  0  0  0  0  0
    6.0119    2.1479    0.0000 C   0  0  0  0  0  0  0  0  0
    7.5110    2.3054    0.0000 C   0  0  0  0  0  0  0  0  0
    8.2254    1.8929    0.0000 C   0  0  0  0  0  0  0  0  0
    8.2254    1.0679    0.0000 C   0  0  0  0  0  0  0  0  0
    7.5110    0.6554    0.0000 C   0  0  0  0  0  0  0  0  0
  1  2  1  0  0  0  0
  2  3  4  0  0  0  0
  2  7  4  0  0  0  0
  3  4  4  0  0  0  0
  4  5  4  0  0  0  0
  5  6  4  0  0  0  0
  5  8  1  0  0  0  0
  6  7  4  0  0  0  0
  8  9  1  0  0  0  0
  8 10  1  0  0  0  0
  8 14  1  0  0  0  0
 10 11  1  0  0  0  0
 11 12  1  0  0  0  0
 12 13  1  0  0  0  0
 12 15  1  0  0  0  0
 13 14  1  0  0  0  0
 15 16  1  0  0  0  0
 16 17  4  0  0  0  0
 16 20  4  0  0  0  0
 17 18  4  0  0  0  0
 18 19  4  0  0  0  0
 18 24  4  0  0  0  0
 19 20  4  0  0  0  0
 19 21  4  0  0  0  0
 21 22  4  0  0  0  0
 22 23  4  0  0  0  0
 23 24  4  0  0  0  0
M  END
>  <Name_Molregno>
649564

>  <DOPAMINE D2>
7.76

>  <DOPAMINE D3>
7.5

>  <DOPAMINE D4>
6.6

$$$$
649603
  Marvin  02231216192D 0   1.00000     0.00000     0

 24 27  0  0  0  0  0  0  0  0999 V2000
    0.3635   -1.7916    0.0000 I   0  0  0  0  0  0  0  0  0
    1.1387   -1.5095    0.0000 C   0  0  0  0  0  0  0  0  0
    1.2820   -0.6970    0.0000 C   0  0  0  0  0  0  0  0  0
    2.0572   -0.4148    0.0000 C   0  0  0  0  0  0  0  0  0
    2.6892   -0.9451    0.0000 C   0  0  0  0  0  0  0  0  0
    2.5459   -1.7576    0.0000 C   0  0  0  0  0  0  0  0  0
    1.7707   -2.0398    0.0000 C   0  0  0  0  0  0  0  0  0
    3.4644   -0.6630    0.0000 C   0  0  0  0  0  0  0  0  0
    3.6077   -1.4754    0.0000 O   0  0  0  0  0  0  0  0  0
    3.0519    0.0515    0.0000 C   0  0  0  0  0  0  0  0  0
    3.4644    0.7660    0.0000 C   0  0  0  0  0  0  0  0  0
    4.2894    0.7660    0.0000 N   0  0  0  0  0  0  0  0  0
    4.7019    0.0515    0.0000 C   0  0  0  0  0  0  0  0  0
    4.2894   -0.6630    0.0000 C   0  0  0  0  0  0  0  0  0
    4.7019    1.4804    0.0000 C   0  0  0  0  0  0  0  0  0
    5.5269    1.4804    0.0000 C   0  0  0  0  0  0  0  0  0
    6.0119    0.8130    0.0000 O   0  0  0  0  0  0  0  0  0
    6.7965    1.0679    0.0000 C   0  0  0  0  0  0  0  0  0
    6.7965    1.8929    0.0000 C   0  0  0  0  0  0  0  0  0
    6.0119    2.1479    0.0000 C   0  0  0  0  0  0  0  0  0
    7.5110    2.3054    0.0000 C   0  0  0  0  0  0  0  0  0
    8.2254    1.8929    0.0000 C   0  0  0  0  0  0  0  0  0
    8.2254    1.0679    0.0000 C   0  0  0  0  0  0  0  0  0
    7.5110    0.6554    0.0000 C   0  0  0  0  0  0  0  0  0
  1  2  1  0  0  0  0
  2  3  4  0  0  0  0
  2  7  4  0  0  0  0
  3  4  4  0  0  0  0
  4  5  4  0  0  0  0
  5  6  4  0  0  0  0
  5  8  1  0  0  0  0
  6  7  4  0  0  0  0
  8  9  1  0  0  0  0
  8 10  1  0  0  0  0
  8 14  1  0  0  0  0
 10 11  1  0  0  0  0
 11 12  1  0  0  0  0
 12 13  1  0  0  0  0
 12 15  1  0  0  0  0
 13 14  1  0  0  0  0
 15 16  1  0  0  0  0
 16 17  4  0  0  0  0
 16 20  4  0  0  0  0
 17 18  4  0  0  0  0
 18 19  4  0  0  0  0
 18 24  4  0  0  0  0
 19 20  4  0  0  0  0
 19 21  4  0  0  0  0
 21 22  4  0  0  0  0
 22 23  4  0  0  0  0
 23 24  4  0  0  0  0
M  END
>  <Name_Molregno>
649603

>  <DOPAMINE D2>
7.84

>  <DOPAMINE D3>
7.31

>  <DOPAMINE D4>
6.61

$$$$
649645
  Marvin  02231216192D 0   1.00000     0.00000     0

 23 26  0  0  0  0  0  0  0  0999 V2000
   -0.0519    0.7159    0.0000 S   0  0  0  0  0  0  0  0  0
    0.7327    0.9708    0.0000 C   0  0  0  0  0  0  0  0  0
    0.7327    1.7958    0.0000 C   0  0  0  0  0  0  0  0  0
   -0.0519    2.0508    0.0000 C   0  0  0  0  0  0  0  0  0
   -0.5368    1.3833    0.0000 C   0  0  0  0  0  0  0  0  0
   -1.3618    1.3833    0.0000 C   0  0  0  0  0  0  0  0  0
   -1.7743    0.6688    0.0000 N   0  0  0  0  0  0  0  0  0
   -1.3618   -0.0456    0.0000 C   0  0  0  0  0  0  0  0  0
   -1.7743   -0.7601    0.0000 C   0  0  0  0  0  0  0  0  0
   -2.5993   -0.7601    0.0000 C   0  0  0  0  0  0  0  0  0
   -2.4561   -1.5726    0.0000 O   0  0  0  0  0  0  0  0  0
   -3.0118   -0.0456    0.0000 C   0  0  0  0  0  0  0  0  0
   -2.5993    0.6688    0.0000 C   0  0  0  0  0  0  0  0  0
   -3.3746   -1.0423    0.0000 C   0  0  0  0  0  0  0  0  0
   -3.5178   -1.8547    0.0000 C   0  0  0  0  0  0  0  0  0
   -4.2931   -2.1369    0.0000 C   0  0  0  0  0  0  0  0  0
   -4.9251   -1.6066    0.0000 C   0  0  0  0  0  0  0  0  0
   -4.7818   -0.7941    0.0000 C   0  0  0  0  0  0  0  0  0
   -4.0065   -0.5120    0.0000 C   0  0  0  0  0  0  0  0  0
    1.4472    2.2083    0.0000 C   0  0  0  0  0  0  0  0  0
    2.1617    1.7958    0.0000 C   0  0  0  0  0  0  0  0  0
    2.1617    0.9708    0.0000 C   0  0  0  0  0  0  0  0  0
    1.4472    0.5583    0.0000 C   0  0  0  0  0  0  0  0  0
  1  2  4  0  0  0  0
  1  5  4  0  0  0  0
  2  3  4  0  0  0  0
  2 23  4  0  0  0  0
  3  4  4  0  0  0  0
  3 20  4  0  0  0  0
  4  5  4  0  0  0  0
  5  6  1  0  0  0  0
  6  7  1  0  0  0  0
  7  8  1  0  0  0  0
  7 13  1  0  0  0  0
  8  9  1  0  0  0  0
  9 10  1  0  0  0  0
 10 11  1  0  0  0  0
 10 12  1  0  0  0  0
 10 14  1  0  0  0  0
 12 13  1  0  0  0  0
 14 15  4  0  0  0  0
 14 19  4  0  0  0  0
 15 16  4  0  0  0  0
 16 17  4  0  0  0  0
 17 18  4  0  0  0  0
 18 19  4  0  0  0  0
 20 21  4  0  0  0  0
 21 22  4  0  0  0  0
 22 23  4  0  0  0  0
M  END
>  <Name_Molregno>
649645

>  <DOPAMINE D2>
7.33

>  <DOPAMINE D3>
6.85

>  <DOPAMINE D4>
6.42

$$$$
649646
  Marvin  02231216192D 0   1.00000     0.00000     0

 24 27  0  0  0  0  0  0  0  0999 V2000
    0.3176    0.0313    0.0000 Br  0  0  0  0  0  0  0  0  0
    1.0460   -0.3560    0.0000 C   0  0  0  0  0  0  0  0  0
    1.7457    0.0812    0.0000 C   0  0  0  0  0  0  0  0  0
    2.4741   -0.3061    0.0000 C   0  0  0  0  0  0  0  0  0
    2.5029   -1.1306    0.0000 C   0  0  0  0  0  0  0  0  0
    1.8032   -1.5678    0.0000 C   0  0  0  0  0  0  0  0  0
    1.0748   -1.1805    0.0000 C   0  0  0  0  0  0  0  0  0
    3.2313   -1.5179    0.0000 C   0  0  0  0  0  0  0  0  0
    2.7234   -2.1680    0.0000 O   0  0  0  0  0  0  0  0  0
    3.4863   -0.7333    0.0000 C   0  0  0  0  0  0  0  0  0
    4.2932   -0.5618    0.0000 C   0  0  0  0  0  0  0  0  0
    4.8453   -1.1749    0.0000 N   0  0  0  0  0  0  0  0  0
    4.5903   -1.9595    0.0000 C   0  0  0  0  0  0  0  0  0
    3.7833   -2.1310    0.0000 C   0  0  0  0  0  0  0  0  0
    5.6522   -1.0033    0.0000 C   0  0  0  0  0  0  0  0  0
    5.9072   -0.2187    0.0000 C   0  0  0  0  0  0  0  0  0
    6.6918    0.0362    0.0000 C   0  0  0  0  0  0  0  0  0
    6.6918    0.8612    0.0000 C   0  0  0  0  0  0  0  0  0
    5.9072    1.1162    0.0000 O   0  0  0  0  0  0  0  0  0
    5.4222    0.4487    0.0000 C   0  0  0  0  0  0  0  0  0
    7.4063    1.2737    0.0000 C   0  0  0  0  0  0  0  0  0
    8.1207    0.8612    0.0000 C   0  0  0  0  0  0  0  0  0
    8.1207    0.0362    0.0000 C   0  0  0  0  0  0  0  0  0
    7.4063   -0.3763    0.0000 C   0  0  0  0  0  0  0  0  0
  1  2  1  0  0  0  0
  2  3  4  0  0  0  0
  2  7  4  0  0  0  0
  3  4  4  0  0  0  0
  4  5  4  0  0  0  0
  5  6  4  0  0  0  0
  5  8  1  0  0  0  0
  6  7  4  0  0  0  0
  8  9  1  0  0  0  0
  8 10  1  0  0  0  0
  8 14  1  0  0  0  0
 10 11  1  0  0  0  0
 11 12  1  0  0  0  0
 12 13  1  0  0  0  0
 12 15  1  0  0  0  0
 13 14  1  0  0  0  0
 15 16  1  0  0  0  0
 16 17  4  0  0  0  0
 16 20  4  0  0  0  0
 17 18  4  0  0  0  0
 17 24  4  0  0  0  0
 18 19  4  0  0  0  0
 18 21  4  0  0  0  0
 19 20  4  0  0  0  0
 21 22  4  0  0  0  0
 22 23  4  0  0  0  0
 23 24  4  0  0  0  0
M  END
>  <Name_Molregno>
649646

>  <DOPAMINE D2>
8.18

>  <DOPAMINE D3>
7.96

>  <DOPAMINE D4>
7.02

$$$$
649647
  Marvin  02231216192D 0   1.00000     0.00000     0

 24 27  0  0  0  0  0  0  0  0999 V2000
    0.3176    0.0313    0.0000 I   0  0  0  0  0  0  0  0  0
    1.0460   -0.3560    0.0000 C   0  0  0  0  0  0  0  0  0
    1.7457    0.0812    0.0000 C   0  0  0  0  0  0  0  0  0
    2.4741   -0.3061    0.0000 C   0  0  0  0  0  0  0  0  0
    2.5029   -1.1306    0.0000 C   0  0  0  0  0  0  0  0  0
    1.8032   -1.5678    0.0000 C   0  0  0  0  0  0  0  0  0
    1.0748   -1.1805    0.0000 C   0  0  0  0  0  0  0  0  0
    3.2313   -1.5179    0.0000 C   0  0  0  0  0  0  0  0  0
    2.7234   -2.1680    0.0000 O   0  0  0  0  0  0  0  0  0
    3.4863   -0.7333    0.0000 C   0  0  0  0  0  0  0  0  0
    4.2932   -0.5618    0.0000 C   0  0  0  0  0  0  0  0  0
    4.8453   -1.1749    0.0000 N   0  0  0  0  0  0  0  0  0
    4.5903   -1.9595    0.0000 C   0  0  0  0  0  0  0  0  0
    3.7833   -2.1310    0.0000 C   0  0  0  0  0  0  0  0  0
    5.6522   -1.0033    0.0000 C   0  0  0  0  0  0  0  0  0
    5.9072   -0.2187    0.0000 C   0  0  0  0  0  0  0  0  0
    6.6918    0.0362    0.0000 C   0  0  0  0  0  0  0  0  0
    6.6918    0.8612    0.0000 C   0  0  0  0  0  0  0  0  0
    5.9072    1.1162    0.0000 O   0  0  0  0  0  0  0  0  0
    5.4222    0.4487    0.0000 C   0  0  0  0  0  0  0  0  0
    7.4063    1.2737    0.0000 C   0  0  0  0  0  0  0  0  0
    8.1207    0.8612    0.0000 C   0  0  0  0  0  0  0  0  0
    8.1207    0.0362    0.0000 C   0  0  0  0  0  0  0  0  0
    7.4063   -0.3763    0.0000 C   0  0  0  0  0  0  0  0  0
  1  2  1  0  0  0  0
  2  3  4  0  0  0  0
  2  7  4  0  0  0  0
  3  4  4  0  0  0  0
  4  5  4  0  0  0  0
  5  6  4  0  0  0  0
  5  8  1  0  0  0  0
  6  7  4  0  0  0  0
  8  9  1  0  0  0  0
  8 10  1  0  0  0  0
  8 14  1  0  0  0  0
 10 11  1  0  0  0  0
 11 12  1  0  0  0  0
 12 13  1  0  0  0  0
 12 15  1  0  0  0  0
 13 14  1  0  0  0  0
 15 16  1  0  0  0  0
 16 17  4  0  0  0  0
 16 20  4  0  0  0  0
 17 18  4  0  0  0  0
 17 24  4  0  0  0  0
 18 19  4  0  0  0  0
 18 21  4  0  0  0  0
 19 20  4  0  0  0  0
 21 22  4  0  0  0  0
 22 23  4  0  0  0  0
 23 24  4  0  0  0  0
M  END
>  <Name_Molregno>
649647

>  <DOPAMINE D2>
8.62

>  <DOPAMINE D3>
7.95

>  <DOPAMINE D4>
7.39

$$$$
649648
  Marvin  02231216192D 0   1.00000     0.00000     0

 26 30  0  0  0  0  0  0  0  0999 V2000
    3.2156   -3.5592    0.0000 O   0  0  0  0  0  0  0  0  0
    2.8801   -2.8055    0.0000 C   0  0  0  0  0  0  0  0  0
    2.0596   -2.8918    0.0000 C   0  0  0  0  0  0  0  0  0
    1.8881   -3.6987    0.0000 C   0  0  0  0  0  0  0  0  0
    2.6025   -4.1112    0.0000 C   0  0  0  0  0  0  0  0  0
    2.6025   -4.9362    0.0000 C   0  0  0  0  0  0  0  0  0
    1.8881   -5.3487    0.0000 C   0  0  0  0  0  0  0  0  0
    1.1736   -4.9362    0.0000 C   0  0  0  0  0  0  0  0  0
    1.1736   -4.1112    0.0000 C   0  0  0  0  0  0  0  0  0
    1.5076   -2.2787    0.0000 C   0  0  0  0  0  0  0  0  0
    1.7625   -1.4940    0.0000 N   0  0  0  0  0  0  0  0  0
    1.2105   -0.8810    0.0000 C   0  0  0  0  0  0  0  0  0
    1.4654   -0.0963    0.0000 C   0  0  0  0  0  0  0  0  0
    2.2724    0.0752    0.0000 C   0  0  0  0  0  0  0  0  0
    2.5273    0.8598    0.0000 N   0  0  0  0  0  0  0  0  0
    3.3119    1.1148    0.0000 C   0  0  0  0  0  0  0  0  0
    3.3119    1.9398    0.0000 C   0  0  0  0  0  0  0  0  0
    2.5273    2.1947    0.0000 N   0  0  0  0  0  0  0  0  0
    2.0424    1.5273    0.0000 C   0  0  0  0  0  0  0  0  0
    1.2174    1.5273    0.0000 O   0  0  0  0  0  0  0  0  0
    4.0264    2.3523    0.0000 C   0  0  0  0  0  0  0  0  0
    4.7409    1.9398    0.0000 C   0  0  0  0  0  0  0  0  0
    4.7409    1.1148    0.0000 C   0  0  0  0  0  0  0  0  0
    4.0264    0.7023    0.0000 C   0  0  0  0  0  0  0  0  0
    2.8244   -0.5379    0.0000 C   0  0  0  0  0  0  0  0  0
    2.5695   -1.3225    0.0000 C   0  0  0  0  0  0  0  0  0
  1  2  4  0  0  0  0
  1  5  4  0  0  0  0
  2  3  4  0  0  0  0
  3  4  4  0  0  0  0
  3 10  1  0  0  0  0
  4  5  4  0  0  0  0
  4  9  4  0  0  0  0
  5  6  4  0  0  0  0
  6  7  4  0  0  0  0
  7  8  4  0  0  0  0
  8  9  4  0  0  0  0
 10 11  1  0  0  0  0
 11 12  1  0  0  0  0
 11 26  1  0  0  0  0
 12 13  1  0  0  0  0
 13 14  1  0  0  0  0
 14 15  1  0  0  0  0
 14 25  1  0  0  0  0
 15 16  1  0  0  0  0
 15 19  1  0  0  0  0
 16 17  4  0  0  0  0
 16 24  4  0  0  0  0
 17 18  1  0  0  0  0
 17 21  4  0  0  0  0
 18 19  1  0  0  0  0
 19 20  2  0  0  0  0
 21 22  4  0  0  0  0
 22 23  4  0  0  0  0
 23 24  4  0  0  0  0
 25 26  1  0  0  0  0
M  END
>  <Name_Molregno>
649648

>  <DOPAMINE D2>
7.87

>  <DOPAMINE D3>
8.52

>  <DOPAMINE D4>
6.79

$$$$
649688
  Marvin  02231216192D 0   1.00000     0.00000     0

 26 30  0  0  0  0  0  0  0  0999 V2000
    3.2156   -3.5592    0.0000 S   0  0  0  0  0  0  0  0  0
    2.8801   -2.8055    0.0000 C   0  0  0  0  0  0  0  0  0
    2.0596   -2.8918    0.0000 C   0  0  0  0  0  0  0  0  0
    1.8881   -3.6987    0.0000 C   0  0  0  0  0  0  0  0  0
    2.6025   -4.1112    0.0000 C   0  0  0  0  0  0  0  0  0
    2.6025   -4.9362    0.0000 C   0  0  0  0  0  0  0  0  0
    1.8881   -5.3487    0.0000 C   0  0  0  0  0  0  0  0  0
    1.1736   -4.9362    0.0000 C   0  0  0  0  0  0  0  0  0
    1.1736   -4.1112    0.0000 C   0  0  0  0  0  0  0  0  0
    1.5076   -2.2787    0.0000 C   0  0  0  0  0  0  0  0  0
    1.7625   -1.4940    0.0000 N   0  0  0  0  0  0  0  0  0
    1.2105   -0.8810    0.0000 C   0  0  0  0  0  0  0  0  0
    1.4654   -0.0963    0.0000 C   0  0  0  0  0  0  0  0  0
    2.2724    0.0752    0.0000 C   0  0  0  0  0  0  0  0  0
    2.5273    0.8598    0.0000 N   0  0  0  0  0  0  0  0  0
    3.3119    1.1148    0.0000 C   0  0  0  0  0  0  0  0  0
    3.3119    1.9398    0.0000 C   0  0  0  0  0  0  0  0  0
    2.5273    2.1947    0.0000 N   0  0  0  0  0  0  0  0  0
    2.0424    1.5273    0.0000 C   0  0  0  0  0  0  0  0  0
    1.2174    1.5273    0.0000 O   0  0  0  0  0  0  0  0  0
    4.0264    2.3523    0.0000 C   0  0  0  0  0  0  0  0  0
    4.7409    1.9398    0.0000 C   0  0  0  0  0  0  0  0  0
    4.7409    1.1148    0.0000 C   0  0  0  0  0  0  0  0  0
    4.0264    0.7023    0.0000 C   0  0  0  0  0  0  0  0  0
    2.8244   -0.5379    0.0000 C   0  0  0  0  0  0  0  0  0
    2.5695   -1.3225    0.0000 C   0  0  0  0  0  0  0  0  0
  1  2  4  0  0  0  0
  1  5  4  0  0  0  0
  2  3  4  0  0  0  0
  3  4  4  0  0  0  0
  3 10  1  0  0  0  0
  4  5  4  0  0  0  0
  4  9  4  0  0  0  0
  5  6  4  0  0  0  0
  6  7  4  0  0  0  0
  7  8  4  0  0  0  0
  8  9  4  0  0  0  0
 10 11  1  0  0  0  0
 11 12  1  0  0  0  0
 11 26  1  0  0  0  0
 12 13  1  0  0  0  0
 13 14  1  0  0  0  0
 14 15  1  0  0  0  0
 14 25  1  0  0  0  0
 15 16  1  0  0  0  0
 15 19  1  0  0  0  0
 16 17  4  0  0  0  0
 16 24  4  0  0  0  0
 17 18  1  0  0  0  0
 17 21  4  0  0  0  0
 18 19  1  0  0  0  0
 19 20  2  0  0  0  0
 21 22  4  0  0  0  0
 22 23  4  0  0  0  0
 23 24  4  0  0  0  0
 25 26  1  0  0  0  0
M  END
>  <Name_Molregno>
649688

>  <DOPAMINE D2>
7.42

>  <DOPAMINE D3>
7.33

>  <DOPAMINE D4>
7.14

$$$$
649689
  Marvin  02231216192D 0   1.00000     0.00000     0

 28 32  0  0  0  0  0  0  0  0999 V2000
   -0.5217    0.7762    0.0000 O   0  0  0  0  0  0  0  0  0
   -1.1348    0.2242    0.0000 C   0  0  0  0  0  0  0  0  0
   -0.7993   -0.5295    0.0000 C   0  0  0  0  0  0  0  0  0
    0.0212   -0.4432    0.0000 C   0  0  0  0  0  0  0  0  0
    0.1927    0.3637    0.0000 C   0  0  0  0  0  0  0  0  0
    0.9774    0.6187    0.0000 C   0  0  0  0  0  0  0  0  0
    1.5905    0.0667    0.0000 C   0  0  0  0  0  0  0  0  0
    1.4189   -0.7403    0.0000 C   0  0  0  0  0  0  0  0  0
    0.6343   -0.9953    0.0000 C   0  0  0  0  0  0  0  0  0
   -1.2118   -1.2439    0.0000 C   0  0  0  0  0  0  0  0  0
   -2.0368   -1.2439    0.0000 N   0  0  0  0  0  0  0  0  0
   -2.4493   -1.9584    0.0000 C   0  0  0  0  0  0  0  0  0
   -3.2743   -1.9584    0.0000 C   0  0  0  0  0  0  0  0  0
   -3.6868   -1.2439    0.0000 C   0  0  0  0  0  0  0  0  0
   -4.1717   -1.9114    0.0000 N   0  0  0  0  0  0  0  0  0
   -4.9563   -1.6564    0.0000 C   0  0  0  0  0  0  0  0  0
   -4.9563   -0.8314    0.0000 N   0  0  0  0  0  0  0  0  0
   -5.6238   -0.3465    0.0000 C   0  0  0  0  0  0  0  0  0
   -4.1717   -0.5765    0.0000 C   0  0  0  0  0  0  0  0  0
   -3.9168    0.2081    0.0000 O   0  0  0  0  0  0  0  0  0
   -3.9168   -2.6960    0.0000 C   0  0  0  0  0  0  0  0  0
   -3.1098   -2.8675    0.0000 C   0  0  0  0  0  0  0  0  0
   -2.8548   -3.6521    0.0000 C   0  0  0  0  0  0  0  0  0
   -3.4069   -4.2652    0.0000 C   0  0  0  0  0  0  0  0  0
   -4.2139   -4.0937    0.0000 C   0  0  0  0  0  0  0  0  0
   -4.4688   -3.3091    0.0000 C   0  0  0  0  0  0  0  0  0
   -3.2743   -0.5295    0.0000 C   0  0  0  0  0  0  0  0  0
   -2.4493   -0.5295    0.0000 C   0  0  0  0  0  0  0  0  0
  1  2  4  0  0  0  0
  1  5  4  0  0  0  0
  2  3  4  0  0  0  0
  3  4  4  0  0  0  0
  3 10  1  0  0  0  0
  4  5  4  0  0  0  0
  4  9  4  0  0  0  0
  5  6  4  0  0  0  0
  6  7  4  0  0  0  0
  7  8  4  0  0  0  0
  8  9  4  0  0  0  0
 10 11  1  0  0  0  0
 11 12  1  0  0  0  0
 11 28  1  0  0  0  0
 12 13  1  0  0  0  0
 13 14  1  0  0  0  0
 14 15  1  0  0  0  0
 14 19  1  0  0  0  0
 14 27  1  0  0  0  0
 15 16  1  0  0  0  0
 15 21  1  0  0  0  0
 16 17  1  0  0  0  0
 17 18  1  0  0  0  0
 17 19  1  0  0  0  0
 19 20  2  0  0  0  0
 21 22  4  0  0  0  0
 21 26  4  0  0  0  0
 22 23  4  0  0  0  0
 23 24  4  0  0  0  0
 24 25  4  0  0  0  0
 25 26  4  0  0  0  0
 27 28  1  0  0  0  0
M  END
>  <Name_Molregno>
649689

>  <DOPAMINE D2>
8.15

>  <DOPAMINE D3>
8.68

>  <DOPAMINE D4>
6.31

$$$$
649690
  Marvin  02231216192D 0   1.00000     0.00000     0

 30 34  0  0  0  0  0  0  0  0999 V2000
   -8.1092   -4.0419    0.0000 F   0  0  0  0  0  0  0  0  0
   -7.5572   -3.4288    0.0000 C   0  0  0  0  0  0  0  0  0
   -6.7502   -3.6003    0.0000 C   0  0  0  0  0  0  0  0  0
   -6.1982   -2.9872    0.0000 N   0  0  0  0  0  0  0  0  0
   -6.3697   -2.1803    0.0000 C   0  0  0  0  0  0  0  0  0
   -5.6552   -1.7678    0.0000 N   0  0  0  0  0  0  0  0  0
   -5.0421   -2.3198    0.0000 C   0  0  0  0  0  0  0  0  0
   -4.7872   -1.5352    0.0000 C   0  0  0  0  0  0  0  0  0
   -3.9802   -1.3637    0.0000 C   0  0  0  0  0  0  0  0  0
   -3.4282   -1.9768    0.0000 N   0  0  0  0  0  0  0  0  0
   -3.6831   -2.7614    0.0000 C   0  0  0  0  0  0  0  0  0
   -4.4901   -2.9329    0.0000 C   0  0  0  0  0  0  0  0  0
   -2.6212   -1.8052    0.0000 C   0  0  0  0  0  0  0  0  0
   -2.3663   -1.0206    0.0000 C   0  0  0  0  0  0  0  0  0
   -1.5816   -0.7657    0.0000 C   0  0  0  0  0  0  0  0  0
   -1.5816    0.0593    0.0000 C   0  0  0  0  0  0  0  0  0
   -2.3663    0.3143    0.0000 O   0  0  0  0  0  0  0  0  0
   -2.8512   -0.3532    0.0000 C   0  0  0  0  0  0  0  0  0
   -0.8672    0.4718    0.0000 C   0  0  0  0  0  0  0  0  0
   -0.1527    0.0593    0.0000 C   0  0  0  0  0  0  0  0  0
   -0.1527   -0.7657    0.0000 C   0  0  0  0  0  0  0  0  0
   -0.8672   -1.1782    0.0000 C   0  0  0  0  0  0  0  0  0
   -5.3777   -3.0735    0.0000 C   0  0  0  0  0  0  0  0  0
   -4.9652   -3.7880    0.0000 O   0  0  0  0  0  0  0  0  0
   -5.5690   -0.9473    0.0000 C   0  0  0  0  0  0  0  0  0
   -6.2364   -0.4624    0.0000 C   0  0  0  0  0  0  0  0  0
   -6.1502    0.3581    0.0000 C   0  0  0  0  0  0  0  0  0
   -5.3965    0.6937    0.0000 C   0  0  0  0  0  0  0  0  0
   -4.7291    0.2087    0.0000 C   0  0  0  0  0  0  0  0  0
   -4.8153   -0.6117    0.0000 C   0  0  0  0  0  0  0  0  0
  1  2  1  0  0  0  0
  2  3  1  0  0  0  0
  3  4  1  0  0  0  0
  4  5  1  0  0  0  0
  4 23  1  0  0  0  0
  5  6  1  0  0  0  0
  6  7  1  0  0  0  0
  6 25  1  0  0  0  0
  7  8  1  0  0  0  0
  7 12  1  0  0  0  0
  7 23  1  0  0  0  0
  8  9  1  0  0  0  0
  9 10  1  0  0  0  0
 10 11  1  0  0  0  0
 10 13  1  0  0  0  0
 11 12  1  0  0  0  0
 13 14  1  0  0  0  0
 14 15  4  0  0  0  0
 14 18  4  0  0  0  0
 15 16  4  0  0  0  0
 15 22  4  0  0  0  0
 16 17  4  0  0  0  0
 16 19  4  0  0  0  0
 17 18  4  0  0  0  0
 19 20  4  0  0  0  0
 20 21  4  0  0  0  0
 21 22  4  0  0  0  0
 23 24  2  0  0  0  0
 25 26  4  0  0  0  0
 25 30  4  0  0  0  0
 26 27  4  0  0  0  0
 27 28  4  0  0  0  0
 28 29  4  0  0  0  0
 29 30  4  0  0  0  0
M  END
>  <Name_Molregno>
649690

>  <DOPAMINE D2>
8.1

>  <DOPAMINE D3>
8.03

>  <DOPAMINE D4>
6.02

$$$$
649737
  Marvin  02231216192D 0   1.00000     0.00000     0

 28 32  0  0  0  0  0  0  0  0999 V2000
   -0.5217    0.7762    0.0000 S   0  0  0  0  0  0  0  0  0
   -1.1348    0.2242    0.0000 C   0  0  0  0  0  0  0  0  0
   -0.7993   -0.5295    0.0000 C   0  0  0  0  0  0  0  0  0
    0.0212   -0.4432    0.0000 C   0  0  0  0  0  0  0  0  0
    0.1927    0.3637    0.0000 C   0  0  0  0  0  0  0  0  0
    0.9774    0.6187    0.0000 C   0  0  0  0  0  0  0  0  0
    1.5905    0.0667    0.0000 C   0  0  0  0  0  0  0  0  0
    1.4189   -0.7403    0.0000 C   0  0  0  0  0  0  0  0  0
    0.6343   -0.9953    0.0000 C   0  0  0  0  0  0  0  0  0
   -1.2118   -1.2439    0.0000 C   0  0  0  0  0  0  0  0  0
   -2.0368   -1.2439    0.0000 N   0  0  0  0  0  0  0  0  0
   -2.4493   -1.9584    0.0000 C   0  0  0  0  0  0  0  0  0
   -3.2743   -1.9584    0.0000 C   0  0  0  0  0  0  0  0  0
   -3.6868   -1.2439    0.0000 C   0  0  0  0  0  0  0  0  0
   -4.1717   -1.9114    0.0000 N   0  0  0  0  0  0  0  0  0
   -4.9563   -1.6564    0.0000 C   0  0  0  0  0  0  0  0  0
   -4.9563   -0.8314    0.0000 N   0  0  0  0  0  0  0  0  0
   -5.6238   -0.3465    0.0000 C   0  0  0  0  0  0  0  0  0
   -4.1717   -0.5765    0.0000 C   0  0  0  0  0  0  0  0  0
   -3.9168    0.2081    0.0000 O   0  0  0  0  0  0  0  0  0
   -3.9168   -2.6960    0.0000 C   0  0  0  0  0  0  0  0  0
   -3.1098   -2.8675    0.0000 C   0  0  0  0  0  0  0  0  0
   -2.8548   -3.6521    0.0000 C   0  0  0  0  0  0  0  0  0
   -3.4069   -4.2652    0.0000 C   0  0  0  0  0  0  0  0  0
   -4.2139   -4.0937    0.0000 C   0  0  0  0  0  0  0  0  0
   -4.4688   -3.3091    0.0000 C   0  0  0  0  0  0  0  0  0
   -3.2743   -0.5295    0.0000 C   0  0  0  0  0  0  0  0  0
   -2.4493   -0.5295    0.0000 C   0  0  0  0  0  0  0  0  0
  1  2  4  0  0  0  0
  1  5  4  0  0  0  0
  2  3  4  0  0  0  0
  3  4  4  0  0  0  0
  3 10  1  0  0  0  0
  4  5  4  0  0  0  0
  4  9  4  0  0  0  0
  5  6  4  0  0  0  0
  6  7  4  0  0  0  0
  7  8  4  0  0  0  0
  8  9  4  0  0  0  0
 10 11  1  0  0  0  0
 11 12  1  0  0  0  0
 11 28  1  0  0  0  0
 12 13  1  0  0  0  0
 13 14  1  0  0  0  0
 14 15  1  0  0  0  0
 14 19  1  0  0  0  0
 14 27  1  0  0  0  0
 15 16  1  0  0  0  0
 15 21  1  0  0  0  0
 16 17  1  0  0  0  0
 17 18  1  0  0  0  0
 17 19  1  0  0  0  0
 19 20  2  0  0  0  0
 21 22  4  0  0  0  0
 21 26  4  0  0  0  0
 22 23  4  0  0  0  0
 23 24  4  0  0  0  0
 24 25  4  0  0  0  0
 25 26  4  0  0  0  0
 27 28  1  0  0  0  0
M  END
>  <Name_Molregno>
649737

>  <DOPAMINE D2>
7.15

>  <DOPAMINE D3>
7.22

>  <DOPAMINE D4>
6.45

$$$$
649738
  Marvin  02231216192D 0   1.00000     0.00000     0

 36 41  0  0  0  0  0  0  0  0999 V2000
    0.1010   -2.4626    0.0000 F   0  0  0  0  0  0  0  0  0
    0.8547   -2.1270    0.0000 C   0  0  0  0  0  0  0  0  0
    1.5221   -2.6120    0.0000 C   0  0  0  0  0  0  0  0  0
    2.2758   -2.2764    0.0000 N   0  0  0  0  0  0  0  0  0
    2.4473   -1.4694    0.0000 N   0  0  0  0  0  0  0  0  0
    3.2678   -1.3832    0.0000 N   0  0  0  0  0  0  0  0  0
    3.6033   -2.1369    0.0000 C   0  0  0  0  0  0  0  0  0
    2.9902   -2.6889    0.0000 C   0  0  0  0  0  0  0  0  0
    4.4103   -2.3084    0.0000 C   0  0  0  0  0  0  0  0  0
    4.9623   -1.6953    0.0000 N   0  0  0  0  0  0  0  0  0
    4.7908   -0.8883    0.0000 C   0  0  0  0  0  0  0  0  0
    5.5053   -0.4758    0.0000 N   0  0  0  0  0  0  0  0  0
    6.1184   -1.0279    0.0000 C   0  0  0  0  0  0  0  0  0
    6.3733   -0.2432    0.0000 C   0  0  0  0  0  0  0  0  0
    7.1803   -0.0717    0.0000 C   0  0  0  0  0  0  0  0  0
    7.7323   -0.6848    0.0000 N   0  0  0  0  0  0  0  0  0
    7.4774   -1.4694    0.0000 C   0  0  0  0  0  0  0  0  0
    6.6704   -1.6410    0.0000 C   0  0  0  0  0  0  0  0  0
    8.5393   -0.5133    0.0000 C   0  0  0  0  0  0  0  0  0
    8.7942    0.2713    0.0000 C   0  0  0  0  0  0  0  0  0
    9.5789    0.5263    0.0000 C   0  0  0  0  0  0  0  0  0
    9.5789    1.3513    0.0000 C   0  0  0  0  0  0  0  0  0
    8.7942    1.6062    0.0000 O   0  0  0  0  0  0  0  0  0
    8.3093    0.9388    0.0000 C   0  0  0  0  0  0  0  0  0
   10.2933    1.7638    0.0000 C   0  0  0  0  0  0  0  0  0
   11.0078    1.3513    0.0000 C   0  0  0  0  0  0  0  0  0
   11.0078    0.5263    0.0000 C   0  0  0  0  0  0  0  0  0
   10.2933    0.1138    0.0000 C   0  0  0  0  0  0  0  0  0
    5.7828   -1.7815    0.0000 C   0  0  0  0  0  0  0  0  0
    6.1953   -2.4960    0.0000 O   0  0  0  0  0  0  0  0  0
    5.5915    0.3447    0.0000 C   0  0  0  0  0  0  0  0  0
    4.9241    0.8296    0.0000 C   0  0  0  0  0  0  0  0  0
    5.0103    1.6501    0.0000 C   0  0  0  0  0  0  0  0  0
    5.7640    1.9856    0.0000 C   0  0  0  0  0  0  0  0  0
    6.4314    1.5007    0.0000 C   0  0  0  0  0  0  0  0  0
    6.3452    0.6802    0.0000 C   0  0  0  0  0  0  0  0  0
  1  2  1  0  0  0  0
  2  3  1  0  0  0  0
  3  4  1  0  0  0  0
  4  5  4  0  0  0  0
  4  8  4  0  0  0  0
  5  6  4  0  0  0  0
  6  7  4  0  0  0  0
  7  8  4  0  0  0  0
  7  9  1  0  0  0  0
  9 10  1  0  0  0  0
 10 11  1  0  0  0  0
 10 29  1  0  0  0  0
 11 12  1  0  0  0  0
 12 13  1  0  0  0  0
 12 31  1  0  0  0  0
 13 14  1  0  0  0  0
 13 18  1  0  0  0  0
 13 29  1  0  0  0  0
 14 15  1  0  0  0  0
 15 16  1  0  0  0  0
 16 17  1  0  0  0  0
 16 19  1  0  0  0  0
 17 18  1  0  0  0  0
 19 20  1  0  0  0  0
 20 21  4  0  0  0  0
 20 24  4  0  0  0  0
 21 22  4  0  0  0  0
 21 28  4  0  0  0  0
 22 23  4  0  0  0  0
 22 25  4  0  0  0  0
 23 24  4  0  0  0  0
 25 26  4  0  0  0  0
 26 27  4  0  0  0  0
 27 28  4  0  0  0  0
 29 30  2  0  0  0  0
 31 32  4  0  0  0  0
 31 36  4  0  0  0  0
 32 33  4  0  0  0  0
 33 34  4  0  0  0  0
 34 35  4  0  0  0  0
 35 36  4  0  0  0  0
M  END
>  <Name_Molregno>
649738

>  <DOPAMINE D2>
8.7

>  <DOPAMINE D3>
9.05

>  <DOPAMINE D4>
6.01

$$$$
649742
  Marvin  02231216192D 0   1.00000     0.00000     0

 26 29  0  0  0  0  0  0  0  0999 V2000
    0.2323   -0.0312    0.0000 Cl  0  0  0  0  0  0  0  0  0
    0.9607   -0.4185    0.0000 C   0  0  0  0  0  0  0  0  0
    1.6603    0.0187    0.0000 C   0  0  0  0  0  0  0  0  0
    2.3888   -0.3687    0.0000 C   0  0  0  0  0  0  0  0  0
    2.4176   -1.1932    0.0000 C   0  0  0  0  0  0  0  0  0
    1.7179   -1.6303    0.0000 C   0  0  0  0  0  0  0  0  0
    0.9895   -1.2430    0.0000 C   0  0  0  0  0  0  0  0  0
    3.1460   -1.5805    0.0000 C   0  0  0  0  0  0  0  0  0
    2.6381   -2.2306    0.0000 O   0  0  0  0  0  0  0  0  0
    3.4009   -0.7959    0.0000 C   0  0  0  0  0  0  0  0  0
    4.2079   -0.6243    0.0000 C   0  0  0  0  0  0  0  0  0
    4.7599   -1.2374    0.0000 N   0  0  0  0  0  0  0  0  0
    4.5050   -2.0220    0.0000 C   0  0  0  0  0  0  0  0  0
    3.6980   -2.1936    0.0000 C   0  0  0  0  0  0  0  0  0
    5.5669   -1.0659    0.0000 C   0  0  0  0  0  0  0  0  0
    5.8219   -0.2813    0.0000 C   0  0  0  0  0  0  0  0  0
    6.6065   -0.0263    0.0000 C   0  0  0  0  0  0  0  0  0
    6.6065    0.7987    0.0000 C   0  0  0  0  0  0  0  0  0
    5.8219    1.0536    0.0000 N   0  0  0  0  0  0  0  0  0
    5.3369    0.3862    0.0000 C   0  0  0  0  0  0  0  0  0
    7.3209    1.2112    0.0000 C   0  0  0  0  0  0  0  0  0
    8.0354    0.7987    0.0000 C   0  0  0  0  0  0  0  0  0
    8.0354   -0.0263    0.0000 C   0  0  0  0  0  0  0  0  0
    7.3209   -0.4388    0.0000 C   0  0  0  0  0  0  0  0  0
    7.3209   -1.2638    0.0000 O   0  0  0  0  0  0  0  0  0
    8.0354   -1.6763    0.0000 C   0  0  0  0  0  0  0  0  0
  1  2  1  0  0  0  0
  2  3  4  0  0  0  0
  2  7  4  0  0  0  0
  3  4  4  0  0  0  0
  4  5  4  0  0  0  0
  5  6  4  0  0  0  0
  5  8  1  0  0  0  0
  6  7  4  0  0  0  0
  8  9  1  0  0  0  0
  8 10  1  0  0  0  0
  8 14  1  0  0  0  0
 10 11  1  0  0  0  0
 11 12  1  0  0  0  0
 12 13  1  0  0  0  0
 12 15  1  0  0  0  0
 13 14  1  0  0  0  0
 15 16  1  0  0  0  0
 16 17  4  0  0  0  0
 16 20  4  0  0  0  0
 17 18  4  0  0  0  0
 17 24  4  0  0  0  0
 18 19  4  0  0  0  0
 18 21  4  0  0  0  0
 19 20  4  0  0  0  0
 21 22  4  0  0  0  0
 22 23  4  0  0  0  0
 23 24  4  0  0  0  0
 24 25  1  0  0  0  0
 25 26  1  0  0  0  0
M  STY  1   1 DAT
M  SAL   1  1  19
M  SDT   1 MRV_IMPLICIT_H                                        
M  SDD   1     0.0000    0.0000    DR    ALL  0       0  
M  SED   1 IMPL_H1
M  END
>  <Name_Molregno>
649742

>  <DOPAMINE D2>
8.38

>  <DOPAMINE D3>
6.6

>  <DOPAMINE D4>
5.7

$$$$
649743
  Marvin  02231216192D 0   1.00000     0.00000     0

 26 29  0  0  0  0  0  0  0  0999 V2000
    1.0430    3.6553    0.0000 Cl  0  0  0  0  0  0  0  0  0
    1.5509    3.0051    0.0000 C   0  0  0  0  0  0  0  0  0
    2.3679    3.1200    0.0000 C   0  0  0  0  0  0  0  0  0
    2.8758    2.4699    0.0000 C   0  0  0  0  0  0  0  0  0
    2.5668    1.7049    0.0000 C   0  0  0  0  0  0  0  0  0
    1.7498    1.5901    0.0000 C   0  0  0  0  0  0  0  0  0
    1.2419    2.2402    0.0000 C   0  0  0  0  0  0  0  0  0
    3.0747    1.0548    0.0000 C   0  0  0  0  0  0  0  0  0
    2.3462    0.6675    0.0000 O   0  0  0  0  0  0  0  0  0
    3.6267    1.6679    0.0000 C   0  0  0  0  0  0  0  0  0
    4.4337    1.4964    0.0000 C   0  0  0  0  0  0  0  0  0
    4.6886    0.7118    0.0000 N   0  0  0  0  0  0  0  0  0
    4.1366    0.0987    0.0000 C   0  0  0  0  0  0  0  0  0
    3.3296    0.2702    0.0000 C   0  0  0  0  0  0  0  0  0
    5.4956    0.5402    0.0000 C   0  0  0  0  0  0  0  0  0
    5.7505   -0.2444    0.0000 C   0  0  0  0  0  0  0  0  0
    6.5352   -0.4993    0.0000 C   0  0  0  0  0  0  0  0  0
    7.2496   -0.0868    0.0000 C   0  0  0  0  0  0  0  0  0
    7.9641   -0.4993    0.0000 C   0  0  0  0  0  0  0  0  0
    8.6786   -0.0868    0.0000 O   0  0  0  0  0  0  0  0  0
    8.6786    0.7382    0.0000 C   0  0  0  0  0  0  0  0  0
    7.9641   -1.3243    0.0000 C   0  0  0  0  0  0  0  0  0
    7.2496   -1.7368    0.0000 C   0  0  0  0  0  0  0  0  0
    6.5352   -1.3243    0.0000 C   0  0  0  0  0  0  0  0  0
    5.7505   -1.5793    0.0000 N   0  0  0  0  0  0  0  0  0
    5.2656   -0.9118    0.0000 C   0  0  0  0  0  0  0  0  0
  1  2  1  0  0  0  0
  2  3  4  0  0  0  0
  2  7  4  0  0  0  0
  3  4  4  0  0  0  0
  4  5  4  0  0  0  0
  5  6  4  0  0  0  0
  5  8  1  0  0  0  0
  6  7  4  0  0  0  0
  8  9  1  0  0  0  0
  8 10  1  0  0  0  0
  8 14  1  0  0  0  0
 10 11  1  0  0  0  0
 11 12  1  0  0  0  0
 12 13  1  0  0  0  0
 12 15  1  0  0  0  0
 13 14  1  0  0  0  0
 15 16  1  0  0  0  0
 16 17  4  0  0  0  0
 16 26  4  0  0  0  0
 17 18  4  0  0  0  0
 17 24  4  0  0  0  0
 18 19  4  0  0  0  0
 19 20  1  0  0  0  0
 19 22  4  0  0  0  0
 20 21  1  0  0  0  0
 22 23  4  0  0  0  0
 23 24  4  0  0  0  0
 24 25  4  0  0  0  0
 25 26  4  0  0  0  0
M  STY  1   1 DAT
M  SAL   1  1  25
M  SDT   1 MRV_IMPLICIT_H                                        
M  SDD   1     0.0000    0.0000    DR    ALL  0       0  
M  SED   1 IMPL_H1
M  END
>  <Name_Molregno>
649743

>  <DOPAMINE D2>
8.38

>  <DOPAMINE D3>
6.69

>  <DOPAMINE D4>
5.46

$$$$
649744
  Marvin  02231216192D 0   1.00000     0.00000     0

 26 29  0  0  0  0  0  0  0  0999 V2000
    0.2323   -0.0312    0.0000 Br  0  0  0  0  0  0  0  0  0
    0.9607   -0.4185    0.0000 C   0  0  0  0  0  0  0  0  0
    1.6603    0.0187    0.0000 C   0  0  0  0  0  0  0  0  0
    2.3888   -0.3687    0.0000 C   0  0  0  0  0  0  0  0  0
    2.4176   -1.1932    0.0000 C   0  0  0  0  0  0  0  0  0
    1.7179   -1.6303    0.0000 C   0  0  0  0  0  0  0  0  0
    0.9895   -1.2430    0.0000 C   0  0  0  0  0  0  0  0  0
    3.1460   -1.5805    0.0000 C   0  0  0  0  0  0  0  0  0
    2.6381   -2.2306    0.0000 O   0  0  0  0  0  0  0  0  0
    3.4009   -0.7959    0.0000 C   0  0  0  0  0  0  0  0  0
    4.2079   -0.6243    0.0000 C   0  0  0  0  0  0  0  0  0
    4.7599   -1.2374    0.0000 N   0  0  0  0  0  0  0  0  0
    4.5050   -2.0220    0.0000 C   0  0  0  0  0  0  0  0  0
    3.6980   -2.1936    0.0000 C   0  0  0  0  0  0  0  0  0
    5.5669   -1.0659    0.0000 C   0  0  0  0  0  0  0  0  0
    5.8219   -0.2813    0.0000 C   0  0  0  0  0  0  0  0  0
    6.6065   -0.0263    0.0000 C   0  0  0  0  0  0  0  0  0
    6.6065    0.7987    0.0000 C   0  0  0  0  0  0  0  0  0
    5.8219    1.0536    0.0000 N   0  0  0  0  0  0  0  0  0
    5.3369    0.3862    0.0000 C   0  0  0  0  0  0  0  0  0
    7.3209    1.2112    0.0000 C   0  0  0  0  0  0  0  0  0
    8.0354    0.7987    0.0000 C   0  0  0  0  0  0  0  0  0
    8.0354   -0.0263    0.0000 C   0  0  0  0  0  0  0  0  0
    7.3209   -0.4388    0.0000 C   0  0  0  0  0  0  0  0  0
    7.3209   -1.2638    0.0000 O   0  0  0  0  0  0  0  0  0
    8.0354   -1.6763    0.0000 C   0  0  0  0  0  0  0  0  0
  1  2  1  0  0  0  0
  2  3  4  0  0  0  0
  2  7  4  0  0  0  0
  3  4  4  0  0  0  0
  4  5  4  0  0  0  0
  5  6  4  0  0  0  0
  5  8  1  0  0  0  0
  6  7  4  0  0  0  0
  8  9  1  0  0  0  0
  8 10  1  0  0  0  0
  8 14  1  0  0  0  0
 10 11  1  0  0  0  0
 11 12  1  0  0  0  0
 12 13  1  0  0  0  0
 12 15  1  0  0  0  0
 13 14  1  0  0  0  0
 15 16  1  0  0  0  0
 16 17  4  0  0  0  0
 16 20  4  0  0  0  0
 17 18  4  0  0  0  0
 17 24  4  0  0  0  0
 18 19  4  0  0  0  0
 18 21  4  0  0  0  0
 19 20  4  0  0  0  0
 21 22  4  0  0  0  0
 22 23  4  0  0  0  0
 23 24  4  0  0  0  0
 24 25  1  0  0  0  0
 25 26  1  0  0  0  0
M  STY  1   1 DAT
M  SAL   1  1  19
M  SDT   1 MRV_IMPLICIT_H                                        
M  SDD   1     0.0000    0.0000    DR    ALL  0       0  
M  SED   1 IMPL_H1
M  END
>  <Name_Molregno>
649744

>  <DOPAMINE D2>
8.64

>  <DOPAMINE D3>
6.72

>  <DOPAMINE D4>
6.08

$$$$
649745
  Marvin  02231216192D 0   1.00000     0.00000     0

 26 29  0  0  0  0  0  0  0  0999 V2000
    1.0430    3.6553    0.0000 Br  0  0  0  0  0  0  0  0  0
    1.5509    3.0051    0.0000 C   0  0  0  0  0  0  0  0  0
    2.3679    3.1200    0.0000 C   0  0  0  0  0  0  0  0  0
    2.8758    2.4699    0.0000 C   0  0  0  0  0  0  0  0  0
    2.5668    1.7049    0.0000 C   0  0  0  0  0  0  0  0  0
    1.7498    1.5901    0.0000 C   0  0  0  0  0  0  0  0  0
    1.2419    2.2402    0.0000 C   0  0  0  0  0  0  0  0  0
    3.0747    1.0548    0.0000 C   0  0  0  0  0  0  0  0  0
    2.3462    0.6675    0.0000 O   0  0  0  0  0  0  0  0  0
    3.6267    1.6679    0.0000 C   0  0  0  0  0  0  0  0  0
    4.4337    1.4964    0.0000 C   0  0  0  0  0  0  0  0  0
    4.6886    0.7118    0.0000 N   0  0  0  0  0  0  0  0  0
    4.1366    0.0987    0.0000 C   0  0  0  0  0  0  0  0  0
    3.3296    0.2702    0.0000 C   0  0  0  0  0  0  0  0  0
    5.4956    0.5402    0.0000 C   0  0  0  0  0  0  0  0  0
    5.7505   -0.2444    0.0000 C   0  0  0  0  0  0  0  0  0
    6.5352   -0.4993    0.0000 C   0  0  0  0  0  0  0  0  0
    7.2496   -0.0868    0.0000 C   0  0  0  0  0  0  0  0  0
    7.9641   -0.4993    0.0000 C   0  0  0  0  0  0  0  0  0
    8.6786   -0.0868    0.0000 O   0  0  0  0  0  0  0  0  0
    8.6786    0.7382    0.0000 C   0  0  0  0  0  0  0  0  0
    7.9641   -1.3243    0.0000 C   0  0  0  0  0  0  0  0  0
    7.2496   -1.7368    0.0000 C   0  0  0  0  0  0  0  0  0
    6.5352   -1.3243    0.0000 C   0  0  0  0  0  0  0  0  0
    5.7505   -1.5793    0.0000 N   0  0  0  0  0  0  0  0  0
    5.2656   -0.9118    0.0000 C   0  0  0  0  0  0  0  0  0
  1  2  1  0  0  0  0
  2  3  4  0  0  0  0
  2  7  4  0  0  0  0
  3  4  4  0  0  0  0
  4  5  4  0  0  0  0
  5  6  4  0  0  0  0
  5  8  1  0  0  0  0
  6  7  4  0  0  0  0
  8  9  1  0  0  0  0
  8 10  1  0  0  0  0
  8 14  1  0  0  0  0
 10 11  1  0  0  0  0
 11 12  1  0  0  0  0
 12 13  1  0  0  0  0
 12 15  1  0  0  0  0
 13 14  1  0  0  0  0
 15 16  1  0  0  0  0
 16 17  4  0  0  0  0
 16 26  4  0  0  0  0
 17 18  4  0  0  0  0
 17 24  4  0  0  0  0
 18 19  4  0  0  0  0
 19 20  1  0  0  0  0
 19 22  4  0  0  0  0
 20 21  1  0  0  0  0
 22 23  4  0  0  0  0
 23 24  4  0  0  0  0
 24 25  4  0  0  0  0
 25 26  4  0  0  0  0
M  STY  1   1 DAT
M  SAL   1  1  25
M  SDT   1 MRV_IMPLICIT_H                                        
M  SDD   1     0.0000    0.0000    DR    ALL  0       0  
M  SED   1 IMPL_H1
M  END
>  <Name_Molregno>
649745

>  <DOPAMINE D2>
8.6

>  <DOPAMINE D3>
7.01

>  <DOPAMINE D4>
6.15

$$$$
649778
  Marvin  02231216192D 0   1.00000     0.00000     0

 24 27  0  0  0  0  0  0  0  0999 V2000
    0.3176    0.0313    0.0000 Br  0  0  0  0  0  0  0  0  0
    1.0460   -0.3560    0.0000 C   0  0  0  0  0  0  0  0  0
    1.7457    0.0812    0.0000 C   0  0  0  0  0  0  0  0  0
    2.4741   -0.3061    0.0000 C   0  0  0  0  0  0  0  0  0
    2.5029   -1.1306    0.0000 C   0  0  0  0  0  0  0  0  0
    1.8032   -1.5678    0.0000 C   0  0  0  0  0  0  0  0  0
    1.0748   -1.1805    0.0000 C   0  0  0  0  0  0  0  0  0
    3.2313   -1.5179    0.0000 C   0  0  0  0  0  0  0  0  0
    2.7234   -2.1680    0.0000 O   0  0  0  0  0  0  0  0  0
    3.4863   -0.7333    0.0000 C   0  0  0  0  0  0  0  0  0
    4.2932   -0.5618    0.0000 C   0  0  0  0  0  0  0  0  0
    4.8453   -1.1749    0.0000 N   0  0  0  0  0  0  0  0  0
    4.5903   -1.9595    0.0000 C   0  0  0  0  0  0  0  0  0
    3.7833   -2.1310    0.0000 C   0  0  0  0  0  0  0  0  0
    5.6522   -1.0033    0.0000 C   0  0  0  0  0  0  0  0  0
    5.9072   -0.2187    0.0000 C   0  0  0  0  0  0  0  0  0
    6.6918    0.0362    0.0000 C   0  0  0  0  0  0  0  0  0
    6.6918    0.8612    0.0000 C   0  0  0  0  0  0  0  0  0
    5.9072    1.1162    0.0000 N   0  0  0  0  0  0  0  0  0
    5.4222    0.4487    0.0000 C   0  0  0  0  0  0  0  0  0
    7.4063    1.2737    0.0000 C   0  0  0  0  0  0  0  0  0
    8.1207    0.8612    0.0000 C   0  0  0  0  0  0  0  0  0
    8.1207    0.0362    0.0000 C   0  0  0  0  0  0  0  0  0
    7.4063   -0.3763    0.0000 C   0  0  0  0  0  0  0  0  0
  1  2  1  0  0  0  0
  2  3  4  0  0  0  0
  2  7  4  0  0  0  0
  3  4  4  0  0  0  0
  4  5  4  0  0  0  0
  5  6  4  0  0  0  0
  5  8  1  0  0  0  0
  6  7  4  0  0  0  0
  8  9  1  0  0  0  0
  8 10  1  0  0  0  0
  8 14  1  0  0  0  0
 10 11  1  0  0  0  0
 11 12  1  0  0  0  0
 12 13  1  0  0  0  0
 12 15  1  0  0  0  0
 13 14  1  0  0  0  0
 15 16  1  0  0  0  0
 16 17  4  0  0  0  0
 16 20  4  0  0  0  0
 17 18  4  0  0  0  0
 17 24  4  0  0  0  0
 18 19  4  0  0  0  0
 18 21  4  0  0  0  0
 19 20  4  0  0  0  0
 21 22  4  0  0  0  0
 22 23  4  0  0  0  0
 23 24  4  0  0  0  0
M  STY  1   1 DAT
M  SAL   1  1  19
M  SDT   1 MRV_IMPLICIT_H                                        
M  SDD   1     0.0000    0.0000    DR    ALL  0       0  
M  SED   1 IMPL_H1
M  END
>  <Name_Molregno>
649778

>  <DOPAMINE D2>
8.32

>  <DOPAMINE D3>
6.96

>  <DOPAMINE D4>
6.19

$$$$
651383
  Marvin  02231216192D 0   1.00000     0.00000     0

 24 27  0  0  0  0  0  0  0  0999 V2000
    0.3176    0.0313    0.0000 I   0  0  0  0  0  0  0  0  0
    1.0460   -0.3560    0.0000 C   0  0  0  0  0  0  0  0  0
    1.7457    0.0812    0.0000 C   0  0  0  0  0  0  0  0  0
    2.4741   -0.3061    0.0000 C   0  0  0  0  0  0  0  0  0
    2.5029   -1.1306    0.0000 C   0  0  0  0  0  0  0  0  0
    1.8032   -1.5678    0.0000 C   0  0  0  0  0  0  0  0  0
    1.0748   -1.1805    0.0000 C   0  0  0  0  0  0  0  0  0
    3.2313   -1.5179    0.0000 C   0  0  0  0  0  0  0  0  0
    2.7234   -2.1680    0.0000 O   0  0  0  0  0  0  0  0  0
    3.4863   -0.7333    0.0000 C   0  0  0  0  0  0  0  0  0
    4.2932   -0.5618    0.0000 C   0  0  0  0  0  0  0  0  0
    4.8453   -1.1749    0.0000 N   0  0  0  0  0  0  0  0  0
    4.5903   -1.9595    0.0000 C   0  0  0  0  0  0  0  0  0
    3.7833   -2.1310    0.0000 C   0  0  0  0  0  0  0  0  0
    5.6522   -1.0033    0.0000 C   0  0  0  0  0  0  0  0  0
    5.9072   -0.2187    0.0000 C   0  0  0  0  0  0  0  0  0
    6.6918    0.0362    0.0000 C   0  0  0  0  0  0  0  0  0
    6.6918    0.8612    0.0000 C   0  0  0  0  0  0  0  0  0
    5.9072    1.1162    0.0000 N   0  0  0  0  0  0  0  0  0
    5.4222    0.4487    0.0000 C   0  0  0  0  0  0  0  0  0
    7.4063    1.2737    0.0000 C   0  0  0  0  0  0  0  0  0
    8.1207    0.8612    0.0000 C   0  0  0  0  0  0  0  0  0
    8.1207    0.0362    0.0000 C   0  0  0  0  0  0  0  0  0
    7.4063   -0.3763    0.0000 C   0  0  0  0  0  0  0  0  0
  1  2  1  0  0  0  0
  2  3  4  0  0  0  0
  2  7  4  0  0  0  0
  3  4  4  0  0  0  0
  4  5  4  0  0  0  0
  5  6  4  0  0  0  0
  5  8  1  0  0  0  0
  6  7  4  0  0  0  0
  8  9  1  0  0  0  0
  8 10  1  0  0  0  0
  8 14  1  0  0  0  0
 10 11  1  0  0  0  0
 11 12  1  0  0  0  0
 12 13  1  0  0  0  0
 12 15  1  0  0  0  0
 13 14  1  0  0  0  0
 15 16  1  0  0  0  0
 16 17  4  0  0  0  0
 16 20  4  0  0  0  0
 17 18  4  0  0  0  0
 17 24  4  0  0  0  0
 18 19  4  0  0  0  0
 18 21  4  0  0  0  0
 19 20  4  0  0  0  0
 21 22  4  0  0  0  0
 22 23  4  0  0  0  0
 23 24  4  0  0  0  0
M  STY  1   1 DAT
M  SAL   1  1  19
M  SDT   1 MRV_IMPLICIT_H                                        
M  SDD   1     0.0000    0.0000    DR    ALL  0       0  
M  SED   1 IMPL_H1
M  END
>  <Name_Molregno>
651383

>  <DOPAMINE D2>
8.42

>  <DOPAMINE D3>
7.03

>  <DOPAMINE D4>
7.27

$$$$
651385
  Marvin  02231216192D 0   1.00000     0.00000     0

 26 29  0  0  0  0  0  0  0  0999 V2000
    0.2323   -0.0312    0.0000 I   0  0  0  0  0  0  0  0  0
    0.9607   -0.4185    0.0000 C   0  0  0  0  0  0  0  0  0
    1.6603    0.0187    0.0000 C   0  0  0  0  0  0  0  0  0
    2.3888   -0.3687    0.0000 C   0  0  0  0  0  0  0  0  0
    2.4176   -1.1932    0.0000 C   0  0  0  0  0  0  0  0  0
    1.7179   -1.6303    0.0000 C   0  0  0  0  0  0  0  0  0
    0.9895   -1.2430    0.0000 C   0  0  0  0  0  0  0  0  0
    3.1460   -1.5805    0.0000 C   0  0  0  0  0  0  0  0  0
    2.6381   -2.2306    0.0000 O   0  0  0  0  0  0  0  0  0
    3.4009   -0.7959    0.0000 C   0  0  0  0  0  0  0  0  0
    4.2079   -0.6243    0.0000 C   0  0  0  0  0  0  0  0  0
    4.7599   -1.2374    0.0000 N   0  0  0  0  0  0  0  0  0
    4.5050   -2.0220    0.0000 C   0  0  0  0  0  0  0  0  0
    3.6980   -2.1936    0.0000 C   0  0  0  0  0  0  0  0  0
    5.5669   -1.0659    0.0000 C   0  0  0  0  0  0  0  0  0
    5.8219   -0.2813    0.0000 C   0  0  0  0  0  0  0  0  0
    6.6065   -0.0263    0.0000 C   0  0  0  0  0  0  0  0  0
    6.6065    0.7987    0.0000 C   0  0  0  0  0  0  0  0  0
    5.8219    1.0536    0.0000 N   0  0  0  0  0  0  0  0  0
    5.3369    0.3862    0.0000 C   0  0  0  0  0  0  0  0  0
    7.3209    1.2112    0.0000 C   0  0  0  0  0  0  0  0  0
    8.0354    0.7987    0.0000 C   0  0  0  0  0  0  0  0  0
    8.0354   -0.0263    0.0000 C   0  0  0  0  0  0  0  0  0
    7.3209   -0.4388    0.0000 C   0  0  0  0  0  0  0  0  0
    7.3209   -1.2638    0.0000 O   0  0  0  0  0  0  0  0  0
    8.0354   -1.6763    0.0000 C   0  0  0  0  0  0  0  0  0
  1  2  1  0  0  0  0
  2  3  4  0  0  0  0
  2  7  4  0  0  0  0
  3  4  4  0  0  0  0
  4  5  4  0  0  0  0
  5  6  4  0  0  0  0
  5  8  1  0  0  0  0
  6  7  4  0  0  0  0
  8  9  1  0  0  0  0
  8 10  1  0  0  0  0
  8 14  1  0  0  0  0
 10 11  1  0  0  0  0
 11 12  1  0  0  0  0
 12 13  1  0  0  0  0
 12 15  1  0  0  0  0
 13 14  1  0  0  0  0
 15 16  1  0  0  0  0
 16 17  4  0  0  0  0
 16 20  4  0  0  0  0
 17 18  4  0  0  0  0
 17 24  4  0  0  0  0
 18 19  4  0  0  0  0
 18 21  4  0  0  0  0
 19 20  4  0  0  0  0
 21 22  4  0  0  0  0
 22 23  4  0  0  0  0
 23 24  4  0  0  0  0
 24 25  1  0  0  0  0
 25 26  1  0  0  0  0
M  STY  1   1 DAT
M  SAL   1  1  19
M  SDT   1 MRV_IMPLICIT_H                                        
M  SDD   1     0.0000    0.0000    DR    ALL  0       0  
M  SED   1 IMPL_H1
M  END
>  <Name_Molregno>
651385

>  <DOPAMINE D2>
9.05

>  <DOPAMINE D3>
6.91

>  <DOPAMINE D4>
7.22

$$$$
651386
  Marvin  02231216192D 0   1.00000     0.00000     0

 26 29  0  0  0  0  0  0  0  0999 V2000
    1.0430    3.6553    0.0000 I   0  0  0  0  0  0  0  0  0
    1.5509    3.0051    0.0000 C   0  0  0  0  0  0  0  0  0
    2.3679    3.1200    0.0000 C   0  0  0  0  0  0  0  0  0
    2.8758    2.4699    0.0000 C   0  0  0  0  0  0  0  0  0
    2.5668    1.7049    0.0000 C   0  0  0  0  0  0  0  0  0
    1.7498    1.5901    0.0000 C   0  0  0  0  0  0  0  0  0
    1.2419    2.2402    0.0000 C   0  0  0  0  0  0  0  0  0
    3.0747    1.0548    0.0000 C   0  0  0  0  0  0  0  0  0
    2.3462    0.6675    0.0000 O   0  0  0  0  0  0  0  0  0
    3.6267    1.6679    0.0000 C   0  0  0  0  0  0  0  0  0
    4.4337    1.4964    0.0000 C   0  0  0  0  0  0  0  0  0
    4.6886    0.7118    0.0000 N   0  0  0  0  0  0  0  0  0
    4.1366    0.0987    0.0000 C   0  0  0  0  0  0  0  0  0
    3.3296    0.2702    0.0000 C   0  0  0  0  0  0  0  0  0
    5.4956    0.5402    0.0000 C   0  0  0  0  0  0  0  0  0
    5.7505   -0.2444    0.0000 C   0  0  0  0  0  0  0  0  0
    6.5352   -0.4993    0.0000 C   0  0  0  0  0  0  0  0  0
    7.2496   -0.0868    0.0000 C   0  0  0  0  0  0  0  0  0
    7.9641   -0.4993    0.0000 C   0  0  0  0  0  0  0  0  0
    8.6786   -0.0868    0.0000 O   0  0  0  0  0  0  0  0  0
    8.6786    0.7382    0.0000 C   0  0  0  0  0  0  0  0  0
    7.9641   -1.3243    0.0000 C   0  0  0  0  0  0  0  0  0
    7.2496   -1.7368    0.0000 C   0  0  0  0  0  0  0  0  0
    6.5352   -1.3243    0.0000 C   0  0  0  0  0  0  0  0  0
    5.7505   -1.5793    0.0000 N   0  0  0  0  0  0  0  0  0
    5.2656   -0.9118    0.0000 C   0  0  0  0  0  0  0  0  0
  1  2  1  0  0  0  0
  2  3  4  0  0  0  0
  2  7  4  0  0  0  0
  3  4  4  0  0  0  0
  4  5  4  0  0  0  0
  5  6  4  0  0  0  0
  5  8  1  0  0  0  0
  6  7  4  0  0  0  0
  8  9  1  0  0  0  0
  8 10  1  0  0  0  0
  8 14  1  0  0  0  0
 10 11  1  0  0  0  0
 11 12  1  0  0  0  0
 12 13  1  0  0  0  0
 12 15  1  0  0  0  0
 13 14  1  0  0  0  0
 15 16  1  0  0  0  0
 16 17  4  0  0  0  0
 16 26  4  0  0  0  0
 17 18  4  0  0  0  0
 17 24  4  0  0  0  0
 18 19  4  0  0  0  0
 19 20  1  0  0  0  0
 19 22  4  0  0  0  0
 20 21  1  0  0  0  0
 22 23  4  0  0  0  0
 23 24  4  0  0  0  0
 24 25  4  0  0  0  0
 25 26  4  0  0  0  0
M  STY  1   1 DAT
M  SAL   1  1  25
M  SDT   1 MRV_IMPLICIT_H                                        
M  SDD   1     0.0000    0.0000    DR    ALL  0       0  
M  SED   1 IMPL_H1
M  END
>  <Name_Molregno>
651386

>  <DOPAMINE D2>
9.05

>  <DOPAMINE D3>
7

>  <DOPAMINE D4>
6.89

$$$$
651387
  Marvin  02231216192D 0   1.00000     0.00000     0

 25 28  0  0  0  0  0  0  0  0999 V2000
    0.3881   -1.3196    0.0000 O   0  0  0  0  0  0  0  0  0
    1.1025   -0.9071    0.0000 C   0  0  0  0  0  0  0  0  0
   -0.3264   -0.9071    0.0000 C   0  0  0  0  0  0  0  0  0
   -1.0409   -1.3196    0.0000 C   0  0  0  0  0  0  0  0  0
   -1.7553   -0.9071    0.0000 C   0  0  0  0  0  0  0  0  0
   -1.7553   -0.0821    0.0000 C   0  0  0  0  0  0  0  0  0
   -2.5400    0.1729    0.0000 N   0  0  0  0  0  0  0  0  0
   -3.0249   -0.4946    0.0000 C   0  0  0  0  0  0  0  0  0
   -2.5400   -1.1620    0.0000 C   0  0  0  0  0  0  0  0  0
   -2.7949   -1.9466    0.0000 C   0  0  0  0  0  0  0  0  0
   -3.6019   -2.1181    0.0000 N   0  0  0  0  0  0  0  0  0
   -3.8568   -2.9028    0.0000 C   0  0  0  0  0  0  0  0  0
   -4.6638   -3.0743    0.0000 C   0  0  0  0  0  0  0  0  0
   -5.2158   -2.4612    0.0000 C   0  0  0  0  0  0  0  0  0
   -5.7237   -3.1113    0.0000 O   0  0  0  0  0  0  0  0  0
   -4.9609   -1.6766    0.0000 C   0  0  0  0  0  0  0  0  0
   -4.1539   -1.5050    0.0000 C   0  0  0  0  0  0  0  0  0
   -5.9443   -2.0739    0.0000 C   0  0  0  0  0  0  0  0  0
   -6.6439   -2.5111    0.0000 C   0  0  0  0  0  0  0  0  0
   -7.3723   -2.1237    0.0000 C   0  0  0  0  0  0  0  0  0
   -7.4011   -1.2993    0.0000 C   0  0  0  0  0  0  0  0  0
   -6.7015   -0.8621    0.0000 C   0  0  0  0  0  0  0  0  0
   -5.9730   -1.2494    0.0000 C   0  0  0  0  0  0  0  0  0
   -1.0409    0.3304    0.0000 C   0  0  0  0  0  0  0  0  0
   -0.3264   -0.0821    0.0000 C   0  0  0  0  0  0  0  0  0
  1  2  1  0  0  0  0
  1  3  1  0  0  0  0
  3  4  4  0  0  0  0
  3 25  4  0  0  0  0
  4  5  4  0  0  0  0
  5  6  4  0  0  0  0
  5  9  4  0  0  0  0
  6  7  4  0  0  0  0
  6 24  4  0  0  0  0
  7  8  4  0  0  0  0
  8  9  4  0  0  0  0
  9 10  1  0  0  0  0
 10 11  1  0  0  0  0
 11 12  1  0  0  0  0
 11 17  1  0  0  0  0
 12 13  1  0  0  0  0
 13 14  1  0  0  0  0
 14 15  1  0  0  0  0
 14 16  1  0  0  0  0
 14 18  1  0  0  0  0
 16 17  1  0  0  0  0
 18 19  4  0  0  0  0
 18 23  4  0  0  0  0
 19 20  4  0  0  0  0
 20 21  4  0  0  0  0
 21 22  4  0  0  0  0
 22 23  4  0  0  0  0
 24 25  4  0  0  0  0
M  STY  1   1 DAT
M  SAL   1  1   7
M  SDT   1 MRV_IMPLICIT_H                                        
M  SDD   1     0.0000    0.0000    DR    ALL  0       0  
M  SED   1 IMPL_H1
M  END
>  <Name_Molregno>
651387

>  <DOPAMINE D2>
5.86

>  <DOPAMINE D3>
5.53

>  <DOPAMINE D4>
5

$$$$
651390
  Marvin  02231216192D 0   1.00000     0.00000     0

 28 31  0  0  0  0  0  0  0  0999 V2000
    1.0419    2.0444    0.0000 Br  0  0  0  0  0  0  0  0  0
    1.5498    1.3943    0.0000 C   0  0  0  0  0  0  0  0  0
    2.3668    1.5091    0.0000 C   0  0  0  0  0  0  0  0  0
    2.8747    0.8590    0.0000 C   0  0  0  0  0  0  0  0  0
    2.5657    0.0941    0.0000 C   0  0  0  0  0  0  0  0  0
    1.7487   -0.0208    0.0000 C   0  0  0  0  0  0  0  0  0
    1.2408    0.6293    0.0000 C   0  0  0  0  0  0  0  0  0
    3.0736   -0.5561    0.0000 C   0  0  0  0  0  0  0  0  0
    2.3452   -0.9434    0.0000 O   0  0  0  0  0  0  0  0  0
    3.6256    0.0570    0.0000 C   0  0  0  0  0  0  0  0  0
    4.4326   -0.1145    0.0000 C   0  0  0  0  0  0  0  0  0
    4.6875   -0.8991    0.0000 N   0  0  0  0  0  0  0  0  0
    4.1355   -1.5122    0.0000 C   0  0  0  0  0  0  0  0  0
    3.3285   -1.3407    0.0000 C   0  0  0  0  0  0  0  0  0
    5.4945   -1.0706    0.0000 C   0  0  0  0  0  0  0  0  0
    5.7495   -1.8553    0.0000 C   0  0  0  0  0  0  0  0  0
    6.5341   -2.1102    0.0000 C   0  0  0  0  0  0  0  0  0
    7.2485   -1.6977    0.0000 C   0  0  0  0  0  0  0  0  0
    7.9630   -2.1102    0.0000 C   0  0  0  0  0  0  0  0  0
    8.6775   -1.6977    0.0000 O   0  0  0  0  0  0  0  0  0
    8.6775   -0.8727    0.0000 C   0  0  0  0  0  0  0  0  0
    9.3920   -0.4602    0.0000 C   0  0  0  0  0  0  0  0  0
    9.3920    0.3648    0.0000 F   0  0  0  0  0  0  0  0  0
    7.9630   -2.9352    0.0000 C   0  0  0  0  0  0  0  0  0
    7.2485   -3.3477    0.0000 C   0  0  0  0  0  0  0  0  0
    6.5341   -2.9352    0.0000 C   0  0  0  0  0  0  0  0  0
    5.7495   -3.1901    0.0000 N   0  0  0  0  0  0  0  0  0
    5.2645   -2.5227    0.0000 C   0  0  0  0  0  0  0  0  0
  1  2  1  0  0  0  0
  2  3  4  0  0  0  0
  2  7  4  0  0  0  0
  3  4  4  0  0  0  0
  4  5  4  0  0  0  0
  5  6  4  0  0  0  0
  5  8  1  0  0  0  0
  6  7  4  0  0  0  0
  8  9  1  0  0  0  0
  8 10  1  0  0  0  0
  8 14  1  0  0  0  0
 10 11  1  0  0  0  0
 11 12  1  0  0  0  0
 12 13  1  0  0  0  0
 12 15  1  0  0  0  0
 13 14  1  0  0  0  0
 15 16  1  0  0  0  0
 16 17  4  0  0  0  0
 16 28  4  0  0  0  0
 17 18  4  0  0  0  0
 17 26  4  0  0  0  0
 18 19  4  0  0  0  0
 19 20  1  0  0  0  0
 19 24  4  0  0  0  0
 20 21  1  0  0  0  0
 21 22  1  0  0  0  0
 22 23  1  0  0  0  0
 24 25  4  0  0  0  0
 25 26  4  0  0  0  0
 26 27  4  0  0  0  0
 27 28  4  0  0  0  0
M  STY  1   1 DAT
M  SAL   1  1  27
M  SDT   1 MRV_IMPLICIT_H                                        
M  SDD   1     0.0000    0.0000    DR    ALL  0       0  
M  SED   1 IMPL_H1
M  END
>  <Name_Molregno>
651390

>  <DOPAMINE D2>
7.86

>  <DOPAMINE D3>
6.73

>  <DOPAMINE D4>
6.46

$$$$
651391
  Marvin  02231216192D 0   1.00000     0.00000     0

 28 32  0  0  0  0  0  0  0  0999 V2000
    0.5766   -0.8994    0.0000 O   0  0  0  0  0  0  0  0  0
   -0.1378   -1.3119    0.0000 C   0  0  0  0  0  0  0  0  0
    1.2911   -1.3119    0.0000 C   0  0  0  0  0  0  0  0  0
    2.0056   -0.8994    0.0000 C   0  0  0  0  0  0  0  0  0
    2.7200   -1.3119    0.0000 C   0  0  0  0  0  0  0  0  0
    3.3331   -0.7599    0.0000 N   0  0  0  0  0  0  0  0  0
    2.9976   -0.0062    0.0000 C   0  0  0  0  0  0  0  0  0
    2.1771   -0.0925    0.0000 C   0  0  0  0  0  0  0  0  0
    1.6251    0.5206    0.0000 C   0  0  0  0  0  0  0  0  0
    1.8800    1.3053    0.0000 N   0  0  0  0  0  0  0  0  0
    1.3280    1.9184    0.0000 C   0  0  0  0  0  0  0  0  0
    1.5829    2.7030    0.0000 C   0  0  0  0  0  0  0  0  0
    2.3899    2.8745    0.0000 C   0  0  0  0  0  0  0  0  0
    2.6448    3.6591    0.0000 N   0  0  0  0  0  0  0  0  0
    3.4294    3.9141    0.0000 C   0  0  0  0  0  0  0  0  0
    3.4294    4.7391    0.0000 C   0  0  0  0  0  0  0  0  0
    2.6448    4.9940    0.0000 N   0  0  0  0  0  0  0  0  0
    2.1599    4.3266    0.0000 C   0  0  0  0  0  0  0  0  0
    1.3349    4.3266    0.0000 O   0  0  0  0  0  0  0  0  0
    4.1439    5.1516    0.0000 C   0  0  0  0  0  0  0  0  0
    4.8584    4.7391    0.0000 C   0  0  0  0  0  0  0  0  0
    4.8584    3.9141    0.0000 C   0  0  0  0  0  0  0  0  0
    4.1439    3.5016    0.0000 C   0  0  0  0  0  0  0  0  0
    2.9419    2.2614    0.0000 C   0  0  0  0  0  0  0  0  0
    2.6870    1.4768    0.0000 C   0  0  0  0  0  0  0  0  0
    2.7200   -2.1369    0.0000 C   0  0  0  0  0  0  0  0  0
    2.0056   -2.5494    0.0000 C   0  0  0  0  0  0  0  0  0
    1.2911   -2.1369    0.0000 C   0  0  0  0  0  0  0  0  0
  1  2  1  0  0  0  0
  1  3  1  0  0  0  0
  3  4  4  0  0  0  0
  3 28  4  0  0  0  0
  4  5  4  0  0  0  0
  4  8  4  0  0  0  0
  5  6  4  0  0  0  0
  5 26  4  0  0  0  0
  6  7  4  0  0  0  0
  7  8  4  0  0  0  0
  8  9  1  0  0  0  0
  9 10  1  0  0  0  0
 10 11  1  0  0  0  0
 10 25  1  0  0  0  0
 11 12  1  0  0  0  0
 12 13  1  0  0  0  0
 13 14  1  0  0  0  0
 13 24  1  0  0  0  0
 14 15  1  0  0  0  0
 14 18  1  0  0  0  0
 15 16  4  0  0  0  0
 15 23  4  0  0  0  0
 16 17  1  0  0  0  0
 16 20  4  0  0  0  0
 17 18  1  0  0  0  0
 18 19  2  0  0  0  0
 20 21  4  0  0  0  0
 21 22  4  0  0  0  0
 22 23  4  0  0  0  0
 24 25  1  0  0  0  0
 26 27  4  0  0  0  0
 27 28  4  0  0  0  0
M  STY  1   1 DAT
M  SAL   1  1   6
M  SDT   1 MRV_IMPLICIT_H                                        
M  SDD   1     0.0000    0.0000    DR    ALL  0       0  
M  SED   1 IMPL_H1
M  END
>  <Name_Molregno>
651391

>  <DOPAMINE D2>
7.63

>  <DOPAMINE D3>
6.88

>  <DOPAMINE D4>
5.86

$$$$
651409
  Marvin  02231216192D 0   1.00000     0.00000     0

 28 31  0  0  0  0  0  0  0  0999 V2000
    0.0795   -0.1587    0.0000 Br  0  0  0  0  0  0  0  0  0
    0.8080   -0.5460    0.0000 C   0  0  0  0  0  0  0  0  0
    1.5076   -0.1088    0.0000 C   0  0  0  0  0  0  0  0  0
    2.2360   -0.4962    0.0000 C   0  0  0  0  0  0  0  0  0
    2.2648   -1.3207    0.0000 C   0  0  0  0  0  0  0  0  0
    1.5652   -1.7578    0.0000 C   0  0  0  0  0  0  0  0  0
    0.8367   -1.3705    0.0000 C   0  0  0  0  0  0  0  0  0
    2.9932   -1.7080    0.0000 C   0  0  0  0  0  0  0  0  0
    2.4853   -2.3581    0.0000 O   0  0  0  0  0  0  0  0  0
    3.2482   -0.9233    0.0000 C   0  0  0  0  0  0  0  0  0
    4.0552   -0.7518    0.0000 C   0  0  0  0  0  0  0  0  0
    4.6072   -1.3649    0.0000 N   0  0  0  0  0  0  0  0  0
    4.3523   -2.1495    0.0000 C   0  0  0  0  0  0  0  0  0
    3.5453   -2.3211    0.0000 C   0  0  0  0  0  0  0  0  0
    5.4142   -1.1934    0.0000 C   0  0  0  0  0  0  0  0  0
    5.6691   -0.4088    0.0000 C   0  0  0  0  0  0  0  0  0
    6.4537   -0.1538    0.0000 C   0  0  0  0  0  0  0  0  0
    6.4537    0.6712    0.0000 C   0  0  0  0  0  0  0  0  0
    5.6691    0.9261    0.0000 N   0  0  0  0  0  0  0  0  0
    5.1842    0.2587    0.0000 C   0  0  0  0  0  0  0  0  0
    7.1682    1.0837    0.0000 C   0  0  0  0  0  0  0  0  0
    7.8827    0.6712    0.0000 C   0  0  0  0  0  0  0  0  0
    7.8827   -0.1538    0.0000 C   0  0  0  0  0  0  0  0  0
    7.1682   -0.5663    0.0000 C   0  0  0  0  0  0  0  0  0
    7.1682   -1.3913    0.0000 O   0  0  0  0  0  0  0  0  0
    7.8827   -1.8038    0.0000 C   0  0  0  0  0  0  0  0  0
    7.8827   -2.6288    0.0000 C   0  0  0  0  0  0  0  0  0
    8.5971   -3.0413    0.0000 F   0  0  0  0  0  0  0  0  0
  1  2  1  0  0  0  0
  2  3  4  0  0  0  0
  2  7  4  0  0  0  0
  3  4  4  0  0  0  0
  4  5  4  0  0  0  0
  5  6  4  0  0  0  0
  5  8  1  0  0  0  0
  6  7  4  0  0  0  0
  8  9  1  0  0  0  0
  8 10  1  0  0  0  0
  8 14  1  0  0  0  0
 10 11  1  0  0  0  0
 11 12  1  0  0  0  0
 12 13  1  0  0  0  0
 12 15  1  0  0  0  0
 13 14  1  0  0  0  0
 15 16  1  0  0  0  0
 16 17  4  0  0  0  0
 16 20  4  0  0  0  0
 17 18  4  0  0  0  0
 17 24  4  0  0  0  0
 18 19  4  0  0  0  0
 18 21  4  0  0  0  0
 19 20  4  0  0  0  0
 21 22  4  0  0  0  0
 22 23  4  0  0  0  0
 23 24  4  0  0  0  0
 24 25  1  0  0  0  0
 25 26  1  0  0  0  0
 26 27  1  0  0  0  0
 27 28  1  0  0  0  0
M  STY  1   1 DAT
M  SAL   1  1  19
M  SDT   1 MRV_IMPLICIT_H                                        
M  SDD   1     0.0000    0.0000    DR    ALL  0       0  
M  SED   1 IMPL_H1
M  END
>  <Name_Molregno>
651409

>  <DOPAMINE D2>
7.56

>  <DOPAMINE D3>
6.07

>  <DOPAMINE D4>
6.18

$$$$
651415
  Marvin  02231216192D 0   1.00000     0.00000     0

 28 32  0  0  0  0  0  0  0  0999 V2000
   -5.8693   -5.4874    0.0000 O   0  0  0  0  0  0  0  0  0
   -5.8693   -6.3124    0.0000 C   0  0  0  0  0  0  0  0  0
   -5.1548   -5.0749    0.0000 C   0  0  0  0  0  0  0  0  0
   -5.1548   -4.2499    0.0000 C   0  0  0  0  0  0  0  0  0
   -4.4404   -3.8374    0.0000 C   0  0  0  0  0  0  0  0  0
   -3.7259   -4.2499    0.0000 C   0  0  0  0  0  0  0  0  0
   -3.1128   -3.6979    0.0000 N   0  0  0  0  0  0  0  0  0
   -3.4484   -2.9442    0.0000 C   0  0  0  0  0  0  0  0  0
   -4.2688   -3.0304    0.0000 C   0  0  0  0  0  0  0  0  0
   -4.8209   -2.4173    0.0000 C   0  0  0  0  0  0  0  0  0
   -4.5659   -1.6327    0.0000 N   0  0  0  0  0  0  0  0  0
   -5.1180   -1.0196    0.0000 C   0  0  0  0  0  0  0  0  0
   -4.8630   -0.2350    0.0000 C   0  0  0  0  0  0  0  0  0
   -4.0561   -0.0635    0.0000 C   0  0  0  0  0  0  0  0  0
   -3.8011    0.7212    0.0000 N   0  0  0  0  0  0  0  0  0
   -3.0165    0.9761    0.0000 C   0  0  0  0  0  0  0  0  0
   -3.0165    1.8011    0.0000 C   0  0  0  0  0  0  0  0  0
   -3.8011    2.0560    0.0000 N   0  0  0  0  0  0  0  0  0
   -4.2860    1.3886    0.0000 C   0  0  0  0  0  0  0  0  0
   -5.1110    1.3886    0.0000 O   0  0  0  0  0  0  0  0  0
   -2.3020    2.2136    0.0000 C   0  0  0  0  0  0  0  0  0
   -1.5876    1.8011    0.0000 C   0  0  0  0  0  0  0  0  0
   -1.5876    0.9761    0.0000 C   0  0  0  0  0  0  0  0  0
   -2.3020    0.5636    0.0000 C   0  0  0  0  0  0  0  0  0
   -3.5040   -0.6766    0.0000 C   0  0  0  0  0  0  0  0  0
   -3.7590   -1.4612    0.0000 C   0  0  0  0  0  0  0  0  0
   -3.7259   -5.0749    0.0000 C   0  0  0  0  0  0  0  0  0
   -4.4404   -5.4874    0.0000 C   0  0  0  0  0  0  0  0  0
  1  2  1  0  0  0  0
  1  3  1  0  0  0  0
  3  4  4  0  0  0  0
  3 28  4  0  0  0  0
  4  5  4  0  0  0  0
  5  6  4  0  0  0  0
  5  9  4  0  0  0  0
  6  7  4  0  0  0  0
  6 27  4  0  0  0  0
  7  8  4  0  0  0  0
  8  9  4  0  0  0  0
  9 10  1  0  0  0  0
 10 11  1  0  0  0  0
 11 12  1  0  0  0  0
 11 26  1  0  0  0  0
 12 13  1  0  0  0  0
 13 14  1  0  0  0  0
 14 15  1  0  0  0  0
 14 25  1  0  0  0  0
 15 16  1  0  0  0  0
 15 19  1  0  0  0  0
 16 17  4  0  0  0  0
 16 24  4  0  0  0  0
 17 18  1  0  0  0  0
 17 21  4  0  0  0  0
 18 19  1  0  0  0  0
 19 20  2  0  0  0  0
 21 22  4  0  0  0  0
 22 23  4  0  0  0  0
 23 24  4  0  0  0  0
 25 26  1  0  0  0  0
 27 28  4  0  0  0  0
M  STY  1   1 DAT
M  SAL   1  1   7
M  SDT   1 MRV_IMPLICIT_H                                        
M  SDD   1     0.0000    0.0000    DR    ALL  0       0  
M  SED   1 IMPL_H1
M  END
>  <Name_Molregno>
651415

>  <DOPAMINE D2>
7.9

>  <DOPAMINE D3>
7.17

>  <DOPAMINE D4>
5.65

$$$$
651416
  Marvin  02231216192D 0   1.00000     0.00000     0

 24 27  0  0  0  0  0  0  0  0999 V2000
    1.0618    2.5000    0.0000 Br  0  0  0  0  0  0  0  0  0
    1.5697    1.8499    0.0000 C   0  0  0  0  0  0  0  0  0
    2.3867    1.9647    0.0000 C   0  0  0  0  0  0  0  0  0
    2.8946    1.3146    0.0000 C   0  0  0  0  0  0  0  0  0
    2.5856    0.5497    0.0000 C   0  0  0  0  0  0  0  0  0
    1.7686    0.4349    0.0000 C   0  0  0  0  0  0  0  0  0
    1.2607    1.0850    0.0000 C   0  0  0  0  0  0  0  0  0
    3.0935   -0.1004    0.0000 C   0  0  0  0  0  0  0  0  0
    2.3651   -0.4877    0.0000 O   0  0  0  0  0  0  0  0  0
    3.6455    0.5127    0.0000 C   0  0  0  0  0  0  0  0  0
    4.4525    0.3411    0.0000 C   0  0  0  0  0  0  0  0  0
    4.7074   -0.4435    0.0000 N   0  0  0  0  0  0  0  0  0
    4.1554   -1.0566    0.0000 C   0  0  0  0  0  0  0  0  0
    3.3484   -0.8851    0.0000 C   0  0  0  0  0  0  0  0  0
    5.5144   -0.6150    0.0000 C   0  0  0  0  0  0  0  0  0
    5.7693   -1.3996    0.0000 C   0  0  0  0  0  0  0  0  0
    6.5540   -1.6546    0.0000 C   0  0  0  0  0  0  0  0  0
    7.2684   -1.2421    0.0000 C   0  0  0  0  0  0  0  0  0
    7.9829   -1.6546    0.0000 C   0  0  0  0  0  0  0  0  0
    7.9829   -2.4796    0.0000 C   0  0  0  0  0  0  0  0  0
    7.2684   -2.8921    0.0000 N   0  0  0  0  0  0  0  0  0
    6.5540   -2.4796    0.0000 C   0  0  0  0  0  0  0  0  0
    5.7693   -2.7345    0.0000 N   0  0  0  0  0  0  0  0  0
    5.2844   -2.0671    0.0000 C   0  0  0  0  0  0  0  0  0
  1  2  1  0  0  0  0
  2  3  4  0  0  0  0
  2  7  4  0  0  0  0
  3  4  4  0  0  0  0
  4  5  4  0  0  0  0
  5  6  4  0  0  0  0
  5  8  1  0  0  0  0
  6  7  4  0  0  0  0
  8  9  1  0  0  0  0
  8 10  1  0  0  0  0
  8 14  1  0  0  0  0
 10 11  1  0  0  0  0
 11 12  1  0  0  0  0
 12 13  1  0  0  0  0
 12 15  1  0  0  0  0
 13 14  1  0  0  0  0
 15 16  1  0  0  0  0
 16 17  4  0  0  0  0
 16 24  4  0  0  0  0
 17 18  4  0  0  0  0
 17 22  4  0  0  0  0
 18 19  4  0  0  0  0
 19 20  4  0  0  0  0
 20 21  4  0  0  0  0
 21 22  4  0  0  0  0
 22 23  4  0  0  0  0
 23 24  4  0  0  0  0
M  STY  1   1 DAT
M  SAL   1  1  23
M  SDT   1 MRV_IMPLICIT_H                                        
M  SDD   1     0.0000    0.0000    DR    ALL  0       0  
M  SED   1 IMPL_H1
M  END
>  <Name_Molregno>
651416

>  <DOPAMINE D2>
6.67

>  <DOPAMINE D3>
5.53

>  <DOPAMINE D4>
6.21

$$$$
676249
  Marvin  02231216192D 0   1.00000     0.00000     0

 21 23  0  0  0  0  0  0  0  0999 V2000
    0.9495    0.2481    0.0000 O   0  0  0  0  0  0  0  0  0
    0.9495   -0.5769    0.0000 C   0  0  0  0  0  0  0  0  0
    1.6639   -0.9894    0.0000 C   0  0  0  0  0  0  0  0  0
    1.6639   -1.8144    0.0000 C   0  0  0  0  0  0  0  0  0
    2.3784   -2.2269    0.0000 C   0  0  0  0  0  0  0  0  0
    3.0929   -1.8144    0.0000 C   0  0  0  0  0  0  0  0  0
    3.8073   -2.2269    0.0000 C   0  0  0  0  0  0  0  0  0
    3.8073   -3.0519    0.0000 C   0  0  0  0  0  0  0  0  0
    3.0929   -3.4644    0.0000 C   0  0  0  0  0  0  0  0  0
    2.3784   -3.0519    0.0000 N   0  0  0  0  0  0  0  0  0
    1.6639   -3.4644    0.0000 C   0  0  0  0  0  0  0  0  0
    0.9495   -3.0519    0.0000 C   0  0  0  0  0  0  0  0  0
    0.9495   -2.2269    0.0000 C   0  0  0  0  0  0  0  0  0
    0.2350   -1.8144    0.0000 C   0  0  0  0  0  0  0  0  0
    0.2350   -0.9894    0.0000 C   0  0  0  0  0  0  0  0  0
   -0.4795   -0.5769    0.0000 O   0  0  0  0  0  0  0  0  0
    1.8935   -2.3844    0.0000 C   0  0  0  0  0  0  0  0  0
    4.5218   -1.8144    0.0000 C   0  0  0  0  0  0  0  0  0
    4.5218   -0.9894    0.0000 C   0  0  0  0  0  0  0  0  0
    3.8073   -0.5769    0.0000 C   0  0  0  0  0  0  0  0  0
    3.0929   -0.9894    0.0000 C   0  0  0  0  0  0  0  0  0
  1  2  1  0  0  0  0
  2  3  4  0  0  0  0
  2 15  4  0  0  0  0
  3  4  4  0  0  0  0
  4  5  1  0  0  0  0
  4 13  4  0  0  0  0
  5  6  1  0  0  0  0
  6  7  4  0  0  0  0
  6 21  4  0  0  0  0
  7  8  1  0  0  0  0
  7 18  4  0  0  0  0
  8  9  1  0  0  0  0
  9 10  1  0  0  0  0
 10 11  1  0  0  0  0
 10 17  1  0  0  0  0
 11 12  1  0  0  0  0
 12 13  1  0  0  0  0
 13 14  4  0  0  0  0
 14 15  4  0  0  0  0
 15 16  1  0  0  0  0
 18 19  4  0  0  0  0
 19 20  4  0  0  0  0
 20 21  4  0  0  0  0
M  END
>  <Name_Molregno>
676249

>  <DOPAMINE D1>
7.07

>  <DOPAMINE D2>
6.24

>  <DOPAMINE D4>
6.78

>  <DOPAMINE D5>
7.3

$$$$
9-OH-risperidone
  Marvin  02231216192D 0   1.00000     0.00000     0

 31 35  0  0  1  0  0  0  0  0999 V2000
    1.7758   -2.6889    0.0000 F   0  0  0  0  0  0  0  0  0
    2.0308   -1.9043    0.0000 C   0  0  0  0  0  0  0  0  0
    1.4788   -1.2912    0.0000 C   0  0  0  0  0  0  0  0  0
    1.7337   -0.5066    0.0000 C   0  0  0  0  0  0  0  0  0
    1.3212    0.2079    0.0000 O   0  0  0  0  0  0  0  0  0
    1.8732    0.8210    0.0000 N   0  0  0  0  0  0  0  0  0
    2.6269    0.4854    0.0000 C   0  0  0  0  0  0  0  0  0
    2.5407   -0.3350    0.0000 C   0  0  0  0  0  0  0  0  0
    3.0927   -0.9481    0.0000 C   0  0  0  0  0  0  0  0  0
    2.8378   -1.7327    0.0000 C   0  0  0  0  0  0  0  0  0
    3.3414    0.8979    0.0000 C   0  0  0  0  0  0  0  0  0
    3.3414    1.7229    0.0000 C   0  0  0  0  0  0  0  0  0
    4.0558    2.1354    0.0000 C   0  0  0  0  0  0  0  0  0
    4.7703    1.7229    0.0000 N   0  0  0  0  0  0  0  0  0
    4.7703    0.8979    0.0000 C   0  0  0  0  0  0  0  0  0
    4.0558    0.4854    0.0000 C   0  0  0  0  0  0  0  0  0
    5.4848    2.1354    0.0000 C   0  0  0  0  0  0  0  0  0
    6.1993    1.7229    0.0000 C   0  0  0  0  0  0  0  0  0
    6.9137    2.1354    0.0000 C   0  0  0  0  0  0  0  0  0
    7.6282    1.7229    0.0000 C   0  0  0  0  0  0  0  0  0
    7.6282    0.8979    0.0000 O   0  0  0  0  0  0  0  0  0
    8.3427    2.1354    0.0000 N   0  0  0  0  0  0  0  0  0
    8.3427    2.9604    0.0000 C   0  0  0  0  0  0  0  0  0
    7.6282    3.3729    0.0000 N   0  0  0  0  0  0  0  0  0
    6.9137    2.9604    0.0000 C   0  0  0  0  0  0  0  0  0
    6.1993    3.3729    0.0000 C   0  0  0  0  0  0  0  0  0
    9.0571    3.3729    0.0000 C   0  0  0  0  0  0  0  0  0
    9.0571    4.1979    0.0000 O   0  0  0  0  0  0  0  0  0
    9.7716    2.9604    0.0000 C   0  0  0  0  0  0  0  0  0
    9.7716    2.1354    0.0000 C   0  0  0  0  0  0  0  0  0
    9.0571    1.7229    0.0000 C   0  0  0  0  0  0  0  0  0
  1  2  1  0  0  0  0
  2  3  4  0  0  0  0
  2 10  4  0  0  0  0
  3  4  4  0  0  0  0
  4  5  4  0  0  0  0
  4  8  4  0  0  0  0
  5  6  4  0  0  0  0
  6  7  4  0  0  0  0
  7  8  4  0  0  0  0
  7 11  1  0  0  0  0
  8  9  4  0  0  0  0
  9 10  4  0  0  0  0
 11 12  1  0  0  0  0
 11 16  1  0  0  0  0
 12 13  1  0  0  0  0
 13 14  1  0  0  0  0
 14 15  1  0  0  0  0
 14 17  1  0  0  0  0
 15 16  1  0  0  0  0
 17 18  1  0  0  0  0
 18 19  1  0  0  0  0
 19 20  1  0  0  0  0
 19 25  2  0  0  0  0
 20 21  2  0  0  0  0
 20 22  1  0  0  0  0
 22 23  1  0  0  0  0
 22 31  1  0  0  0  0
 23 24  2  0  0  0  0
 23 27  1  0  0  0  0
 24 25  1  0  0  0  0
 25 26  1  0  0  0  0
 27 28  1  0  0  0  0
 27 29  1  0  0  0  0
 29 30  1  0  0  0  0
 30 31  1  0  0  0  0
M  END
>  <Name_Molregno>
9-OH-risperidone

>  <5-HT1A>
6.24

>  <5-HT1B>
7.51

>  <5-HT1D>
7.44

>  <5-HT1E>
5.49

>  <5-HT2A>
9

>  <5-HT2C>
7.32

>  <5-HT3>
5

>  <5-HT5>
6.56

>  <5-HT6>
5.62

>  <5-HT7>
8.57

>  <Alpha-1A>
8.6

>  <Alpha-1B>
9.15

>  <Alpha-2A>
7.92

>  <Alpha-2B>
7.63

>  <Alpha-2C>
8.2

>  <Beta-1>
5.15

>  <Beta-2>
5.15

>  <DOPAMINE D1>
7.39

>  <DOPAMINE D2>
8.61

>  <DOPAMINE D3>
9.07

>  <DOPAMINE D4>
7.4

>  <DOPAMINE D5>
7.54

>  <Dopamine transporter>
5

>  <HISTAMINE H1>
8.07

>  <HISTAMINE H2>
6.92

>  <HISTAMINE H4>
5.06

>  <Muscarinic acetylcholine receptor M1>
5

>  <Muscarinic acetylcholine receptor M2>
5

>  <Muscarinic acetylcholine receptor M3>
5

>  <Muscarinic acetylcholine receptor M4>
5

>  <Muscarinic acetylcholine receptor M5>
5

>  <Norepinephrine transporter>
5

>  <Serotonin transporter>
5.71

$$$$
Acetylsalicylic-acid
  Marvin  02231216192D 0   1.00000     0.00000     0

 13 13  0  0  0  0  0  0  0  0999 V2000
    0.0203    0.5019    0.0000 O   0  0  0  0  0  0  0  0  0
    0.7347    0.0894    0.0000 C   0  0  0  0  0  0  0  0  0
    1.4492    0.5019    0.0000 O   0  0  0  0  0  0  0  0  0
    0.7347   -0.7356    0.0000 C   0  0  0  0  0  0  0  0  0
   -0.6942    0.0894    0.0000 C   0  0  0  0  0  0  0  0  0
   -0.6942   -0.7356    0.0000 C   0  0  0  0  0  0  0  0  0
   -1.4087   -1.1481    0.0000 C   0  0  0  0  0  0  0  0  0
   -2.1232   -0.7356    0.0000 C   0  0  0  0  0  0  0  0  0
   -2.1232    0.0894    0.0000 C   0  0  0  0  0  0  0  0  0
   -1.4087    0.5019    0.0000 C   0  0  0  0  0  0  0  0  0
   -1.4087    1.3269    0.0000 C   0  0  0  0  0  0  0  0  0
   -2.1232    1.7394    0.0000 O   0  0  0  0  0  0  0  0  0
   -0.6942    1.7394    0.0000 O   0  0  0  0  0  0  0  0  0
  1  2  1  0  0  0  0
  1  5  1  0  0  0  0
  2  3  2  0  0  0  0
  2  4  1  0  0  0  0
  5  6  4  0  0  0  0
  5 10  4  0  0  0  0
  6  7  4  0  0  0  0
  7  8  4  0  0  0  0
  8  9  4  0  0  0  0
  9 10  4  0  0  0  0
 10 11  1  0  0  0  0
 11 12  1  0  0  0  0
 11 13  2  0  0  0  0
M  END
>  <Name_Molregno>
Acetylsalicylic-acid

>  <5-HT1A>
5

>  <5-HT1B>
5

>  <5-HT1D>
5

>  <5-HT2A>
5

>  <5-HT3>
5

>  <5-HT5>
5

>  <5-HT6>
5

>  <5-HT7>
5

>  <Alpha-1A>
5

>  <Alpha-1B>
5

>  <Alpha-2A>
5

>  <Alpha-2B>
5

>  <Alpha-2C>
5

>  <DOPAMINE D1>
5

>  <DOPAMINE D2>
5

>  <DOPAMINE D4>
5

>  <DOPAMINE D5>
5

>  <HISTAMINE H1>
5

>  <HISTAMINE H2>
5

>  <Muscarinic acetylcholine receptor M2>
5

>  <Muscarinic acetylcholine receptor M5>
5

$$$$
ADTN-2
  Marvin  02231216192D 0   1.00000     0.00000     0

 16 16  0  0  0  0  0  0  0  0999 V2000
    2.6449   -2.9002    0.0000 O   0  0  0  0  0  0  0  0  0
    2.1532   -2.2378    0.0000 C   0  0  0  0  0  0  0  0  0
    1.3336   -2.3324    0.0000 N   0  0  0  0  0  0  0  0  0
    0.8419   -1.6700    0.0000 C   0  0  0  0  0  0  0  0  0
    1.1697   -0.9129    0.0000 C   0  0  0  0  0  0  0  0  0
    0.6780   -0.2505    0.0000 C   0  0  0  0  0  0  0  0  0
    1.0058    0.5066    0.0000 C   0  0  0  0  0  0  0  0  0
    1.8254    0.6012    0.0000 C   0  0  0  0  0  0  0  0  0
    2.1532    1.3583    0.0000 C   0  0  0  0  0  0  0  0  0
    1.6615    2.0207    0.0000 O   0  0  0  0  0  0  0  0  0
    2.9728    1.4529    0.0000 N   0  0  0  0  0  0  0  0  0
    3.4645    0.7905    0.0000 C   0  0  0  0  0  0  0  0  0
    3.1367    0.0334    0.0000 C   0  0  0  0  0  0  0  0  0
    3.6284   -0.6290    0.0000 C   0  0  0  0  0  0  0  0  0
    3.3006   -1.3861    0.0000 C   0  0  0  0  0  0  0  0  0
    2.4810   -1.4807    0.0000 C   0  0  0  0  0  0  0  0  0
  1  2  2  0  0  0  0
  2  3  1  0  0  0  0
  2 16  1  0  0  0  0
  3  4  1  0  0  0  0
  4  5  1  0  0  0  0
  5  6  1  0  0  0  0
  6  7  1  0  0  0  0
  7  8  1  0  0  0  0
  8  9  1  0  0  0  0
  9 10  2  0  0  0  0
  9 11  1  0  0  0  0
 11 12  1  0  0  0  0
 12 13  1  0  0  0  0
 13 14  1  0  0  0  0
 14 15  1  0  0  0  0
 15 16  1  0  0  0  0
M  END
>  <Name_Molregno>
ADTN-2

>  <DOPAMINE D1>
5.34

>  <DOPAMINE D2>
6.23

>  <DOPAMINE D4>
6.41

>  <DOPAMINE D5>
6.04

$$$$
ADTN-DIPROPYL6,7
  Marvin  02231216192D 0   1.00000     0.00000     0

 19 20  0  0  1  0  0  0  0  0999 V2000
   -0.2820    0.7943    0.0000 O   0  0  0  0  0  0  0  0  0
   -1.1070    0.7943    0.0000 C   0  0  0  0  0  0  0  0  0
   -1.5195    0.0798    0.0000 C   0  0  0  0  0  0  0  0  0
   -2.3445    0.0798    0.0000 C   0  0  0  0  0  0  0  0  0
   -2.7570   -0.6347    0.0000 C   0  0  0  0  0  0  0  0  0
   -3.5820   -0.6347    0.0000 C   0  0  0  0  0  0  0  0  0
   -3.9945   -1.3491    0.0000 N   0  0  0  0  0  0  0  0  0
   -4.8195   -1.3491    0.0000 C   0  0  0  0  0  0  0  0  0
   -5.2320   -2.0636    0.0000 C   0  0  0  0  0  0  0  0  0
   -6.0570   -2.0636    0.0000 C   0  0  0  0  0  0  0  0  0
   -3.5820   -2.0636    0.0000 C   0  0  0  0  0  0  0  0  0
   -2.7570   -2.0636    0.0000 C   0  0  0  0  0  0  0  0  0
   -2.3445   -2.7781    0.0000 C   0  0  0  0  0  0  0  0  0
   -3.9945    0.0798    0.0000 C   0  0  0  0  0  0  0  0  0
   -3.5820    0.7943    0.0000 C   0  0  0  0  0  0  0  0  0
   -2.7570    0.7943    0.0000 C   0  0  0  0  0  0  0  0  0
   -2.3445    1.5087    0.0000 C   0  0  0  0  0  0  0  0  0
   -1.5195    1.5087    0.0000 C   0  0  0  0  0  0  0  0  0
   -1.1070    2.2232    0.0000 O   0  0  0  0  0  0  0  0  0
  1  2  1  0  0  0  0
  2  3  4  0  0  0  0
  2 18  4  0  0  0  0
  3  4  4  0  0  0  0
  4  5  1  0  0  0  0
  4 16  4  0  0  0  0
  5  6  1  0  0  0  0
  6  7  1  0  0  0  0
  6 14  1  0  0  0  0
  7  8  1  0  0  0  0
  7 11  1  0  0  0  0
  8  9  1  0  0  0  0
  9 10  1  0  0  0  0
 11 12  1  0  0  0  0
 12 13  1  0  0  0  0
 14 15  1  0  0  0  0
 15 16  1  0  0  0  0
 16 17  4  0  0  0  0
 17 18  4  0  0  0  0
 18 19  1  0  0  0  0
M  END
>  <Name_Molregno>
ADTN-DIPROPYL6,7

>  <DOPAMINE D2>
7.6

>  <DOPAMINE D3>
9.17

>  <DOPAMINE D4>
8.06

$$$$
AMOXAPINE
  Marvin  02231216192D 0   1.00000     0.00000     0

 22 25  0  0  0  0  0  0  0  0999 V2000
    4.1595    1.7861    0.0000 Cl  0  0  0  0  0  0  0  0  0
    3.3712    1.5429    0.0000 C   0  0  0  0  0  0  0  0  0
    2.7664    2.1041    0.0000 C   0  0  0  0  0  0  0  0  0
    1.9781    1.8609    0.0000 C   0  0  0  0  0  0  0  0  0
    1.7945    1.0566    0.0000 C   0  0  0  0  0  0  0  0  0
    1.0512    0.6986    0.0000 O   0  0  0  0  0  0  0  0  0
    0.3079    1.0566    0.0000 C   0  0  0  0  0  0  0  0  0
    0.1243    1.8609    0.0000 C   0  0  0  0  0  0  0  0  0
    0.6387    2.5059    0.0000 N   0  0  0  0  0  0  0  0  0
    1.4637    2.5059    0.0000 C   0  0  0  0  0  0  0  0  0
    1.8217    3.2492    0.0000 N   0  0  0  0  0  0  0  0  0
    1.3569    3.9309    0.0000 C   0  0  0  0  0  0  0  0  0
    1.7149    4.6742    0.0000 C   0  0  0  0  0  0  0  0  0
    2.5376    4.7358    0.0000 N   0  0  0  0  0  0  0  0  0
    3.0023    4.0542    0.0000 C   0  0  0  0  0  0  0  0  0
    2.6444    3.3109    0.0000 C   0  0  0  0  0  0  0  0  0
   -0.6640    2.1041    0.0000 C   0  0  0  0  0  0  0  0  0
   -1.2688    1.5429    0.0000 C   0  0  0  0  0  0  0  0  0
   -1.0852    0.7386    0.0000 C   0  0  0  0  0  0  0  0  0
   -0.2969    0.4954    0.0000 C   0  0  0  0  0  0  0  0  0
    2.3993    0.4954    0.0000 C   0  0  0  0  0  0  0  0  0
    3.1876    0.7386    0.0000 C   0  0  0  0  0  0  0  0  0
  1  2  1  0  0  0  0
  2  3  4  0  0  0  0
  2 22  4  0  0  0  0
  3  4  4  0  0  0  0
  4  5  4  0  0  0  0
  4 10  1  0  0  0  0
  5  6  1  0  0  0  0
  5 21  4  0  0  0  0
  6  7  1  0  0  0  0
  7  8  4  0  0  0  0
  7 20  4  0  0  0  0
  8  9  1  0  0  0  0
  8 17  4  0  0  0  0
  9 10  2  0  0  0  0
 10 11  1  0  0  0  0
 11 12  1  0  0  0  0
 11 16  1  0  0  0  0
 12 13  1  0  0  0  0
 13 14  1  0  0  0  0
 14 15  1  0  0  0  0
 15 16  1  0  0  0  0
 17 18  4  0  0  0  0
 18 19  4  0  0  0  0
 19 20  4  0  0  0  0
 21 22  4  0  0  0  0
M  END
>  <Name_Molregno>
AMOXAPINE

>  <5-HT2A>
9.3

>  <5-HT6>
7.3

>  <5-HT7>
6.3

>  <DOPAMINE D2>
7.89

>  <DOPAMINE D3>
7.74

>  <DOPAMINE D4>
8.05

>  <Dopamine transporter>
5.37

>  <Norepinephrine transporter>
7.8

>  <Serotonin transporter>
7.24

$$$$
APOMORPHINE
  Marvin  02231216192D 0   1.00000     0.00000     0

 20 23  0  0  1  0  0  0  0  0999 V2000
    3.2214   -1.7908    0.0000 O   0  0  0  0  0  0  0  0  0
    3.2214   -0.9658    0.0000 C   0  0  0  0  0  0  0  0  0
    2.5070   -0.5533    0.0000 C   0  0  0  0  0  0  0  0  0
    2.5070    0.2717    0.0000 C   0  0  0  0  0  0  0  0  0
    1.7925    0.6842    0.0000 C   0  0  0  0  0  0  0  0  0
    1.0780    0.2717    0.0000 C   0  0  0  0  0  0  0  0  0
    0.3635    0.6842    0.0000 N   0  0  0  0  0  0  0  0  0
   -0.3509    0.2717    0.0000 C   0  0  0  0  0  0  0  0  0
   -0.3509   -0.5533    0.0000 C   0  0  0  0  0  0  0  0  0
    0.3635   -0.9658    0.0000 C   0  0  0  0  0  0  0  0  0
    1.0780   -0.5533    0.0000 C   0  0  0  0  0  0  0  0  0
    1.7925   -0.9658    0.0000 C   0  0  0  0  0  0  0  0  0
    1.7925   -1.7908    0.0000 C   0  0  0  0  0  0  0  0  0
    1.0780   -2.2033    0.0000 C   0  0  0  0  0  0  0  0  0
    0.3635   -1.7908    0.0000 C   0  0  0  0  0  0  0  0  0
    0.3635    1.5092    0.0000 C   0  0  0  0  0  0  0  0  0
    3.2214    0.6842    0.0000 C   0  0  0  0  0  0  0  0  0
    3.9359    0.2717    0.0000 C   0  0  0  0  0  0  0  0  0
    3.9359   -0.5533    0.0000 C   0  0  0  0  0  0  0  0  0
    4.6504   -0.9658    0.0000 O   0  0  0  0  0  0  0  0  0
  1  2  1  0  0  0  0
  2  3  4  0  0  0  0
  2 19  4  0  0  0  0
  3  4  4  0  0  0  0
  3 12  1  0  0  0  0
  4  5  1  0  0  0  0
  4 17  4  0  0  0  0
  5  6  1  0  0  0  0
  6  7  1  0  0  0  0
  6 11  1  0  0  0  0
  7  8  1  0  0  0  0
  7 16  1  0  0  0  0
  8  9  1  0  0  0  0
  9 10  1  0  0  0  0
 10 11  4  0  0  0  0
 10 15  4  0  0  0  0
 11 12  4  0  0  0  0
 12 13  4  0  0  0  0
 13 14  4  0  0  0  0
 14 15  4  0  0  0  0
 17 18  4  0  0  0  0
 18 19  4  0  0  0  0
 19 20  1  0  0  0  0
M  END
>  <Name_Molregno>
APOMORPHINE

>  <5-HT1A>
6.12

>  <5-HT1B>
5.53

>  <5-HT1D>
5.91

>  <5-HT2A>
6.63

>  <5-HT2C>
6.99

>  <Alpha-1A>
5.7

>  <Alpha-1B>
6.17

>  <Alpha-2A>
6.85

>  <Alpha-2B>
7.18

>  <Alpha-2C>
7.44

>  <Beta-1>
5

>  <Beta-2>
5

>  <DOPAMINE D1>
6.4

>  <DOPAMINE D2>
7.34

>  <DOPAMINE D3>
7.65

>  <DOPAMINE D4>
7.92

>  <DOPAMINE D5>
7.14

$$$$
APOMORPHINE-2
  Marvin  02231216192D 0   1.00000     0.00000     0

 20 23  0  0  1  0  0  0  0  0999 V2000
    3.2214   -1.7908    0.0000 O   0  0  0  0  0  0  0  0  0
    3.2214   -0.9658    0.0000 C   0  0  0  0  0  0  0  0  0
    2.5070   -0.5533    0.0000 C   0  0  0  0  0  0  0  0  0
    2.5070    0.2717    0.0000 C   0  0  0  0  0  0  0  0  0
    1.7925    0.6842    0.0000 C   0  0  0  0  0  0  0  0  0
    1.0780    0.2717    0.0000 C   0  0  0  0  0  0  0  0  0
    1.0780   -0.5533    0.0000 C   0  0  0  0  0  0  0  0  0
    1.7925   -0.9658    0.0000 C   0  0  0  0  0  0  0  0  0
    1.7925   -1.7908    0.0000 C   0  0  0  0  0  0  0  0  0
    1.0780   -2.2033    0.0000 C   0  0  0  0  0  0  0  0  0
    0.3635   -1.7908    0.0000 C   0  0  0  0  0  0  0  0  0
    0.3635   -0.9658    0.0000 C   0  0  0  0  0  0  0  0  0
   -0.3509   -0.5533    0.0000 C   0  0  0  0  0  0  0  0  0
   -0.3509    0.2717    0.0000 C   0  0  0  0  0  0  0  0  0
    0.3635    0.6842    0.0000 C   0  0  0  0  0  0  0  0  0
    0.3635    1.5092    0.0000 C   0  0  0  0  0  0  0  0  0
    3.2214    0.6842    0.0000 C   0  0  0  0  0  0  0  0  0
    3.9359    0.2717    0.0000 C   0  0  0  0  0  0  0  0  0
    3.9359   -0.5533    0.0000 C   0  0  0  0  0  0  0  0  0
    4.6504   -0.9658    0.0000 O   0  0  0  0  0  0  0  0  0
  1  2  1  0  0  0  0
  2  3  4  0  0  0  0
  2 19  4  0  0  0  0
  3  4  4  0  0  0  0
  3  8  1  0  0  0  0
  4  5  1  0  0  0  0
  4 17  4  0  0  0  0
  5  6  1  0  0  0  0
  6  7  1  0  0  0  0
  6 15  1  0  0  0  0
  7  8  4  0  0  0  0
  7 12  4  0  0  0  0
  8  9  4  0  0  0  0
  9 10  4  0  0  0  0
 10 11  4  0  0  0  0
 11 12  4  0  0  0  0
 12 13  1  0  0  0  0
 13 14  1  0  0  0  0
 14 15  1  0  0  0  0
 15 16  1  0  0  0  0
 17 18  4  0  0  0  0
 18 19  4  0  0  0  0
 19 20  1  0  0  0  0
M  END
>  <Name_Molregno>
APOMORPHINE-2

>  <5-HT1A>
6.53

>  <DOPAMINE D1>
6.54

>  <DOPAMINE D2>
7.65

>  <DOPAMINE D4>
8.05

$$$$
ARIPIPRAZOLE
  Marvin  02231216192D 0   1.00000     0.00000     0

 30 33  0  0  0  0  0  0  0  0999 V2000
   -8.7485    0.0493    0.0000 Cl  0  0  0  0  0  0  0  0  0
   -8.7485   -0.7757    0.0000 C   0  0  0  0  0  0  0  0  0
   -8.0340   -1.1882    0.0000 C   0  0  0  0  0  0  0  0  0
   -7.3195   -0.7757    0.0000 N   0  0  0  0  0  0  0  0  0
   -7.3195    0.0493    0.0000 C   0  0  0  0  0  0  0  0  0
   -6.6051    0.4618    0.0000 C   0  0  0  0  0  0  0  0  0
   -5.8906    0.0493    0.0000 N   0  0  0  0  0  0  0  0  0
   -5.8906   -0.7757    0.0000 C   0  0  0  0  0  0  0  0  0
   -6.6051   -1.1882    0.0000 C   0  0  0  0  0  0  0  0  0
   -5.1761    0.4618    0.0000 C   0  0  0  0  0  0  0  0  0
   -4.4616    0.0493    0.0000 C   0  0  0  0  0  0  0  0  0
   -3.7472    0.4618    0.0000 C   0  0  0  0  0  0  0  0  0
   -3.0327    0.0493    0.0000 C   0  0  0  0  0  0  0  0  0
   -2.3182    0.4618    0.0000 O   0  0  0  0  0  0  0  0  0
   -1.6038    0.0493    0.0000 C   0  0  0  0  0  0  0  0  0
   -0.8893    0.4618    0.0000 C   0  0  0  0  0  0  0  0  0
   -0.1748    0.0493    0.0000 C   0  0  0  0  0  0  0  0  0
    0.5397    0.4618    0.0000 N   0  0  0  0  0  0  0  0  0
    1.2541    0.0493    0.0000 C   0  0  0  0  0  0  0  0  0
    1.9686    0.4618    0.0000 O   0  0  0  0  0  0  0  0  0
    1.2541   -0.7757    0.0000 C   0  0  0  0  0  0  0  0  0
    0.5397   -1.1882    0.0000 C   0  0  0  0  0  0  0  0  0
   -0.1748   -0.7757    0.0000 C   0  0  0  0  0  0  0  0  0
   -0.8893   -1.1882    0.0000 C   0  0  0  0  0  0  0  0  0
   -1.6038   -0.7757    0.0000 C   0  0  0  0  0  0  0  0  0
   -8.0340   -2.0132    0.0000 C   0  0  0  0  0  0  0  0  0
   -8.7485   -2.4257    0.0000 C   0  0  0  0  0  0  0  0  0
   -9.4629   -2.0132    0.0000 C   0  0  0  0  0  0  0  0  0
   -9.4629   -1.1882    0.0000 C   0  0  0  0  0  0  0  0  0
  -10.1774   -0.7757    0.0000 Cl  0  0  0  0  0  0  0  0  0
  1  2  1  0  0  0  0
  2  3  4  0  0  0  0
  2 29  4  0  0  0  0
  3  4  1  0  0  0  0
  3 26  4  0  0  0  0
  4  5  1  0  0  0  0
  4  9  1  0  0  0  0
  5  6  1  0  0  0  0
  6  7  1  0  0  0  0
  7  8  1  0  0  0  0
  7 10  1  0  0  0  0
  8  9  1  0  0  0  0
 10 11  1  0  0  0  0
 11 12  1  0  0  0  0
 12 13  1  0  0  0  0
 13 14  1  0  0  0  0
 14 15  1  0  0  0  0
 15 16  4  0  0  0  0
 15 25  4  0  0  0  0
 16 17  4  0  0  0  0
 17 18  1  0  0  0  0
 17 23  4  0  0  0  0
 18 19  1  0  0  0  0
 19 20  2  0  0  0  0
 19 21  1  0  0  0  0
 21 22  1  0  0  0  0
 22 23  1  0  0  0  0
 23 24  4  0  0  0  0
 24 25  4  0  0  0  0
 26 27  4  0  0  0  0
 27 28  4  0  0  0  0
 28 29  4  0  0  0  0
 29 30  1  0  0  0  0
M  END
>  <Name_Molregno>
ARIPIPRAZOLE

>  <5-HT1A>
8.21

>  <5-HT1B>
6.08

>  <5-HT1D>
7.18

>  <5-HT1E>
5.1

>  <5-HT2A>
7.85

>  <5-HT2C>
7.48

>  <5-HT3>
6.25

>  <5-HT5>
5.91

>  <5-HT6>
6.32

>  <5-HT7>
7.81

>  <Alpha-1A>
7.59

>  <Alpha-1B>
7.46

>  <Alpha-2A>
7.13

>  <Alpha-2B>
6.99

>  <Alpha-2C>
7.42

>  <Beta-1>
6.85

>  <Beta-2>
6.79

>  <DOPAMINE D1>
6.06

>  <DOPAMINE D2>
8.72

>  <DOPAMINE D3>
8.45

>  <DOPAMINE D4>
6.51

>  <DOPAMINE D5>
5.69

>  <Dopamine transporter>
5.49

>  <HISTAMINE H1>
7.56

>  <HISTAMINE H2>
5

>  <HISTAMINE H4>
5

>  <Muscarinic acetylcholine receptor M1>
5.17

>  <Muscarinic acetylcholine receptor M2>
5.45

>  <Muscarinic acetylcholine receptor M3>
5.33

>  <Muscarinic acetylcholine receptor M4>
5.82

>  <Muscarinic acetylcholine receptor M5>
5.63

>  <Norepinephrine transporter>
5.68

>  <Serotonin transporter>
6.48

$$$$
BENPERIDOL
  Marvin  02231216192D 0   1.00000     0.00000     0

 28 31  0  0  0  0  0  0  0  0999 V2000
    4.4976   -4.6062    0.0000 F   0  0  0  0  0  0  0  0  0
    4.7526   -3.8215    0.0000 C   0  0  0  0  0  0  0  0  0
    4.2005   -3.2085    0.0000 C   0  0  0  0  0  0  0  0  0
    4.4555   -2.4238    0.0000 C   0  0  0  0  0  0  0  0  0
    5.2625   -2.2523    0.0000 C   0  0  0  0  0  0  0  0  0
    5.8145   -2.8654    0.0000 C   0  0  0  0  0  0  0  0  0
    5.5596   -3.6500    0.0000 C   0  0  0  0  0  0  0  0  0
    5.5174   -1.4677    0.0000 C   0  0  0  0  0  0  0  0  0
    6.3244   -1.2962    0.0000 O   0  0  0  0  0  0  0  0  0
    4.9654   -0.8546    0.0000 C   0  0  0  0  0  0  0  0  0
    5.2203   -0.0700    0.0000 C   0  0  0  0  0  0  0  0  0
    4.6683    0.5431    0.0000 C   0  0  0  0  0  0  0  0  0
    4.9232    1.3278    0.0000 N   0  0  0  0  0  0  0  0  0
    4.3712    1.9408    0.0000 C   0  0  0  0  0  0  0  0  0
    4.6261    2.7255    0.0000 C   0  0  0  0  0  0  0  0  0
    5.4331    2.8970    0.0000 C   0  0  0  0  0  0  0  0  0
    5.6880    3.6816    0.0000 N   0  0  0  0  0  0  0  0  0
    6.4726    3.9366    0.0000 C   0  0  0  0  0  0  0  0  0
    6.4726    4.7616    0.0000 C   0  0  0  0  0  0  0  0  0
    5.6880    5.0165    0.0000 N   0  0  0  0  0  0  0  0  0
    5.2031    4.3491    0.0000 C   0  0  0  0  0  0  0  0  0
    4.3781    4.3491    0.0000 O   0  0  0  0  0  0  0  0  0
    7.1871    5.1741    0.0000 C   0  0  0  0  0  0  0  0  0
    7.9016    4.7616    0.0000 C   0  0  0  0  0  0  0  0  0
    7.9016    3.9366    0.0000 C   0  0  0  0  0  0  0  0  0
    7.1871    3.5241    0.0000 C   0  0  0  0  0  0  0  0  0
    5.9851    2.2839    0.0000 C   0  0  0  0  0  0  0  0  0
    5.7302    1.4993    0.0000 C   0  0  0  0  0  0  0  0  0
  1  2  1  0  0  0  0
  2  3  4  0  0  0  0
  2  7  4  0  0  0  0
  3  4  4  0  0  0  0
  4  5  4  0  0  0  0
  5  6  4  0  0  0  0
  5  8  1  0  0  0  0
  6  7  4  0  0  0  0
  8  9  2  0  0  0  0
  8 10  1  0  0  0  0
 10 11  1  0  0  0  0
 11 12  1  0  0  0  0
 12 13  1  0  0  0  0
 13 14  1  0  0  0  0
 13 28  1  0  0  0  0
 14 15  1  0  0  0  0
 15 16  1  0  0  0  0
 16 17  1  0  0  0  0
 16 27  1  0  0  0  0
 17 18  1  0  0  0  0
 17 21  1  0  0  0  0
 18 19  4  0  0  0  0
 18 26  4  0  0  0  0
 19 20  1  0  0  0  0
 19 23  4  0  0  0  0
 20 21  1  0  0  0  0
 21 22  2  0  0  0  0
 23 24  4  0  0  0  0
 24 25  4  0  0  0  0
 25 26  4  0  0  0  0
 27 28  1  0  0  0  0
M  END
>  <Name_Molregno>
BENPERIDOL

>  <DOPAMINE D2>
10.57

>  <DOPAMINE D4>
10.18

$$$$
benzofuranyl
  Marvin  02231216192D 0   1.00000     0.00000     0

 12 13  0  0  0  0  0  0  0  0999 V2000
   -0.0778    0.0110    0.0000 O   0  0  0  0  0  0  0  0  0
    0.7069    0.2659    0.0000 C   0  0  0  0  0  0  0  0  0
    0.7069    1.0909    0.0000 C   0  0  0  0  0  0  0  0  0
   -0.0778    1.3459    0.0000 C   0  0  0  0  0  0  0  0  0
   -0.5627    0.6784    0.0000 C   0  0  0  0  0  0  0  0  0
   -1.3877    0.6784    0.0000 C   0  0  0  0  0  0  0  0  0
   -1.8002   -0.0360    0.0000 O   0  0  0  0  0  0  0  0  0
   -1.8002    1.3929    0.0000 C   0  0  0  0  0  0  0  0  0
    1.4213    1.5034    0.0000 C   0  0  0  0  0  0  0  0  0
    2.1358    1.0909    0.0000 C   0  0  0  0  0  0  0  0  0
    2.1358    0.2659    0.0000 C   0  0  0  0  0  0  0  0  0
    1.4213   -0.1466    0.0000 C   0  0  0  0  0  0  0  0  0
  1  2  4  0  0  0  0
  1  5  4  0  0  0  0
  2  3  4  0  0  0  0
  2 12  4  0  0  0  0
  3  4  4  0  0  0  0
  3  9  4  0  0  0  0
  4  5  4  0  0  0  0
  5  6  1  0  0  0  0
  6  7  2  0  0  0  0
  6  8  1  0  0  0  0
  9 10  4  0  0  0  0
 10 11  4  0  0  0  0
 11 12  4  0  0  0  0
M  END
>  <Name_Molregno>
benzofuranyl

>  <DOPAMINE D2>
6.5

>  <DOPAMINE D3>
8.76

>  <DOPAMINE D4>
6.54

$$$$
B-HT920
  Marvin  02231216192D 0   1.00000     0.00000     0

 14 15  0  0  0  0  0  0  0  0999 V2000
   -3.1193    0.1933    0.0000 S   0  0  0  0  0  0  0  0  0
   -2.3347   -0.0617    0.0000 C   0  0  0  0  0  0  0  0  0
   -1.6896    0.4527    0.0000 C   0  0  0  0  0  0  0  0  0
   -0.8853    0.2691    0.0000 C   0  0  0  0  0  0  0  0  0
   -0.5274   -0.4742    0.0000 N   0  0  0  0  0  0  0  0  0
   -0.8853   -1.2175    0.0000 C   0  0  0  0  0  0  0  0  0
   -1.6896   -1.4010    0.0000 C   0  0  0  0  0  0  0  0  0
   -2.3347   -0.8867    0.0000 C   0  0  0  0  0  0  0  0  0
   -3.1193   -1.1416    0.0000 N   0  0  0  0  0  0  0  0  0
   -3.6042   -0.4742    0.0000 C   0  0  0  0  0  0  0  0  0
   -4.4292   -0.4742    0.0000 N   0  0  0  0  0  0  0  0  0
    0.2976   -0.4742    0.0000 C   0  0  0  0  0  0  0  0  0
    0.7101   -1.1886    0.0000 C   0  0  0  0  0  0  0  0  0
    1.5351   -1.1886    0.0000 C   0  0  0  0  0  0  0  0  0
  1  2  4  0  0  0  0
  1 10  4  0  0  0  0
  2  3  1  0  0  0  0
  2  8  4  0  0  0  0
  3  4  1  0  0  0  0
  4  5  1  0  0  0  0
  5  6  1  0  0  0  0
  5 12  1  0  0  0  0
  6  7  1  0  0  0  0
  7  8  1  0  0  0  0
  8  9  4  0  0  0  0
  9 10  4  0  0  0  0
 10 11  1  0  0  0  0
 12 13  1  0  0  0  0
 13 14  2  0  0  0  0
M  END
>  <Name_Molregno>
B-HT920

>  <5-HT1A>
5.77

>  <5-HT1B>
5

>  <5-HT1D>
5

>  <5-HT2A>
5

>  <5-HT2C>
5

>  <Alpha-1A>
5

>  <Alpha-1B>
5.41

>  <Alpha-2A>
6.91

>  <Alpha-2B>
6.69

>  <Alpha-2C>
6.69

>  <Beta-1>
5

>  <Beta-2>
5

>  <DOPAMINE D1>
5

>  <DOPAMINE D2>
6.88

>  <DOPAMINE D3>
7.8

>  <DOPAMINE D4>
6.48

>  <DOPAMINE D5>
5.46

$$$$
BROMOCRIPTINE
  Marvin  02231216192D 0   1.00000     0.00000     0

 43 49  0  0  1  0  0  0  0  0999 V2000
    6.2699    4.4922    0.0000 Br  0  0  0  0  0  0  0  0  0
    6.7473    3.8193    0.0000 C   0  0  0  0  0  0  0  0  0
    7.5723    3.8193    0.0000 N   0  0  0  0  0  0  0  0  0
    7.8776    2.9622    0.0000 C   0  0  0  0  0  0  0  0  0
    7.1598    2.5497    0.0000 C   0  0  0  0  0  0  0  0  0
    6.4473    2.9622    0.0000 C   0  0  0  0  0  0  0  0  0
    5.7348    2.5497    0.0000 C   0  0  0  0  0  0  0  0  0
    5.7348    1.7247    0.0000 C   0  0  0  0  0  0  0  0  0
    5.0198    1.3130    0.0000 N   0  0  0  0  0  0  0  0  0
    5.0188    0.4880    0.0000 C   0  0  0  0  0  0  0  0  0
    5.7328    0.0747    0.0000 C   0  0  0  0  0  0  0  0  0
    6.4478    0.4863    0.0000 C   0  0  0  0  0  0  0  0  0
    6.4488    1.3113    0.0000 C   0  0  0  0  0  0  0  0  0
    7.1598    1.7247    0.0000 C   0  0  0  0  0  0  0  0  0
    7.8776    1.3122    0.0000 C   0  0  0  0  0  0  0  0  0
    8.5901    1.7247    0.0000 C   0  0  0  0  0  0  0  0  0
    8.5901    2.5497    0.0000 C   0  0  0  0  0  0  0  0  0
    5.7318   -0.7503    0.0000 C   0  0  0  0  0  0  0  0  0
    6.4458   -1.1637    0.0000 O   0  0  0  0  0  0  0  0  0
    5.0168   -1.1620    0.0000 N   0  0  0  0  0  0  0  0  0
    5.0159   -1.9870    0.0000 C   0  0  0  0  0  0  0  0  0
    5.1864   -2.7941    0.0000 O   0  0  0  0  0  0  0  0  0
    4.4715   -3.2058    0.0000 C   0  0  0  0  0  0  0  0  0
    5.1383   -3.6915    0.0000 O   0  0  0  0  0  0  0  0  0
    3.8590   -2.6530    0.0000 N   0  0  0  0  0  0  0  0  0
    3.0741   -2.9070    0.0000 C   0  0  0  0  0  0  0  0  0
    2.4617   -2.3543    0.0000 C   0  0  0  0  0  0  0  0  0
    1.6767   -2.6083    0.0000 C   0  0  0  0  0  0  0  0  0
    1.0643   -2.0555    0.0000 C   0  0  0  0  0  0  0  0  0
    1.5042   -3.4150    0.0000 C   0  0  0  0  0  0  0  0  0
    2.9016   -3.7138    0.0000 C   0  0  0  0  0  0  0  0  0
    2.1167   -3.9678    0.0000 O   0  0  0  0  0  0  0  0  0
    3.5140   -4.2665    0.0000 N   0  0  0  0  0  0  0  0  0
    4.2990   -4.0125    0.0000 C   0  0  0  0  0  0  0  0  0
    4.7831   -4.6806    0.0000 C   0  0  0  0  0  0  0  0  0
    4.2974   -5.3474    0.0000 C   0  0  0  0  0  0  0  0  0
    3.5131   -5.0915    0.0000 C   0  0  0  0  0  0  0  0  0
    4.1955   -1.8997    0.0000 C   0  0  0  0  0  0  0  0  0
    3.7838   -1.1848    0.0000 O   0  0  0  0  0  0  0  0  0
    5.8364   -1.9017    0.0000 C   0  0  0  0  0  0  0  0  0
    6.5514   -1.4901    0.0000 C   0  0  0  0  0  0  0  0  0
    6.3206   -2.5697    0.0000 C   0  0  0  0  0  0  0  0  0
    4.3058    1.7264    0.0000 C   0  0  0  0  0  0  0  0  0
  1  2  1  0  0  0  0
  2  3  4  0  0  0  0
  2  6  4  0  0  0  0
  3  4  4  0  0  0  0
  4  5  4  0  0  0  0
  4 17  4  0  0  0  0
  5  6  4  0  0  0  0
  5 14  4  0  0  0  0
  6  7  1  0  0  0  0
  7  8  1  0  0  0  0
  8  9  1  0  0  0  0
  8 13  1  0  0  0  0
  9 10  1  0  0  0  0
  9 43  1  0  0  0  0
 10 11  1  0  0  0  0
 11 12  1  0  0  0  0
 11 18  1  0  0  0  0
 12 13  2  0  0  0  0
 13 14  1  0  0  0  0
 14 15  4  0  0  0  0
 15 16  4  0  0  0  0
 16 17  4  0  0  0  0
 18 19  2  0  0  0  0
 18 20  1  0  0  0  0
 20 21  1  0  0  0  0
 21 22  1  0  0  0  0
 21 38  1  0  0  0  0
 21 40  1  0  0  0  0
 22 23  1  0  0  0  0
 23 24  1  0  0  0  0
 23 25  1  0  0  0  0
 23 34  1  0  0  0  0
 25 26  1  0  0  0  0
 25 38  1  0  0  0  0
 26 27  1  0  0  0  0
 26 31  1  0  0  0  0
 27 28  1  0  0  0  0
 28 29  1  0  0  0  0
 28 30  1  0  0  0  0
 31 32  2  0  0  0  0
 31 33  1  0  0  0  0
 33 34  1  0  0  0  0
 33 37  1  0  0  0  0
 34 35  1  0  0  0  0
 35 36  1  0  0  0  0
 36 37  1  0  0  0  0
 38 39  2  0  0  0  0
 40 41  1  0  0  0  0
 40 42  1  0  0  0  0
M  STY  1   1 DAT
M  SAL   1  1   3
M  SDT   1 MRV_IMPLICIT_H                                        
M  SDD   1     0.0000    0.0000    DR    ALL  0       0  
M  SED   1 IMPL_H1
M  END
>  <Name_Molregno>
BROMOCRIPTINE

>  <5-HT1A>
7.7

>  <5-HT1B>
6.45

>  <5-HT1D>
7.97

>  <5-HT2A>
6.97

>  <5-HT2C>
6.13

>  <5-HT6>
7.39

>  <Alpha-1A>
8.38

>  <Alpha-1B>
8.86

>  <Alpha-2A>
7.96

>  <Alpha-2B>
7.46

>  <Alpha-2C>
7.55

>  <Beta-1>
6.23

>  <Beta-2>
6.13

>  <DOPAMINE D1>
6

>  <DOPAMINE D2>
8.31

>  <DOPAMINE D3>
8.02

>  <DOPAMINE D4>
6.33

>  <DOPAMINE D5>
6.31

$$$$
BROMPERIDOL
  Marvin  02231216192D 0   1.00000     0.00000     0

 26 28  0  0  0  0  0  0  0  0999 V2000
    1.7138    2.6466    0.0000 Br  0  0  0  0  0  0  0  0  0
    1.9960    1.8714    0.0000 C   0  0  0  0  0  0  0  0  0
    2.8084    1.7281    0.0000 C   0  0  0  0  0  0  0  0  0
    3.0906    0.9529    0.0000 C   0  0  0  0  0  0  0  0  0
    2.5603    0.3209    0.0000 C   0  0  0  0  0  0  0  0  0
    1.7478    0.4642    0.0000 C   0  0  0  0  0  0  0  0  0
    1.4657    1.2394    0.0000 C   0  0  0  0  0  0  0  0  0
    2.8425   -0.4543    0.0000 C   0  0  0  0  0  0  0  0  0
    2.0300   -0.5976    0.0000 O   0  0  0  0  0  0  0  0  0
    3.5569   -0.0418    0.0000 C   0  0  0  0  0  0  0  0  0
    4.2714   -0.4543    0.0000 C   0  0  0  0  0  0  0  0  0
    4.2714   -1.2793    0.0000 N   0  0  0  0  0  0  0  0  0
    3.5569   -1.6918    0.0000 C   0  0  0  0  0  0  0  0  0
    2.8425   -1.2793    0.0000 C   0  0  0  0  0  0  0  0  0
    4.9859   -1.6918    0.0000 C   0  0  0  0  0  0  0  0  0
    5.7003   -1.2793    0.0000 C   0  0  0  0  0  0  0  0  0
    6.4148   -1.6918    0.0000 C   0  0  0  0  0  0  0  0  0
    7.1293   -1.2793    0.0000 C   0  0  0  0  0  0  0  0  0
    7.1293   -0.4543    0.0000 O   0  0  0  0  0  0  0  0  0
    7.8438   -1.6918    0.0000 C   0  0  0  0  0  0  0  0  0
    8.5582   -1.2793    0.0000 C   0  0  0  0  0  0  0  0  0
    9.2727   -1.6918    0.0000 C   0  0  0  0  0  0  0  0  0
    9.2727   -2.5168    0.0000 C   0  0  0  0  0  0  0  0  0
    9.9872   -2.9293    0.0000 F   0  0  0  0  0  0  0  0  0
    8.5582   -2.9293    0.0000 C   0  0  0  0  0  0  0  0  0
    7.8438   -2.5168    0.0000 C   0  0  0  0  0  0  0  0  0
  1  2  1  0  0  0  0
  2  3  4  0  0  0  0
  2  7  4  0  0  0  0
  3  4  4  0  0  0  0
  4  5  4  0  0  0  0
  5  6  4  0  0  0  0
  5  8  1  0  0  0  0
  6  7  4  0  0  0  0
  8  9  1  0  0  0  0
  8 10  1  0  0  0  0
  8 14  1  0  0  0  0
 10 11  1  0  0  0  0
 11 12  1  0  0  0  0
 12 13  1  0  0  0  0
 12 15  1  0  0  0  0
 13 14  1  0  0  0  0
 15 16  1  0  0  0  0
 16 17  1  0  0  0  0
 17 18  1  0  0  0  0
 18 19  2  0  0  0  0
 18 20  1  0  0  0  0
 20 21  4  0  0  0  0
 20 26  4  0  0  0  0
 21 22  4  0  0  0  0
 22 23  4  0  0  0  0
 23 24  1  0  0  0  0
 23 25  4  0  0  0  0
 25 26  4  0  0  0  0
M  END
>  <Name_Molregno>
BROMPERIDOL

>  <DOPAMINE D2>
8.84

>  <DOPAMINE D3>
9.17

>  <DOPAMINE D4>
7.32

>  <Muscarinic acetylcholine receptor M1>
5.12

>  <Muscarinic acetylcholine receptor M2>
5.74

>  <Muscarinic acetylcholine receptor M3>
5.15

>  <Muscarinic acetylcholine receptor M4>
5.77

>  <Muscarinic acetylcholine receptor M5>
5.32

$$$$
BUSPIRONE
  Marvin  02231216192D 0   1.00000     0.00000     0

 28 31  0  0  0  0  0  0  0  0999 V2000
    0.7370   -0.1034    0.0000 O   0  0  0  0  0  0  0  0  0
    0.3245   -0.8179    0.0000 C   0  0  0  0  0  0  0  0  0
    0.7370   -1.5324    0.0000 N   0  0  0  0  0  0  0  0  0
    1.5620   -1.5324    0.0000 C   0  0  0  0  0  0  0  0  0
    1.9745   -0.8179    0.0000 C   0  0  0  0  0  0  0  0  0
    2.7995   -0.8179    0.0000 C   0  0  0  0  0  0  0  0  0
    3.2120   -0.1034    0.0000 C   0  0  0  0  0  0  0  0  0
    4.0370   -0.1034    0.0000 N   0  0  0  0  0  0  0  0  0
    4.4495    0.6111    0.0000 C   0  0  0  0  0  0  0  0  0
    5.2745    0.6111    0.0000 C   0  0  0  0  0  0  0  0  0
    5.6870   -0.1034    0.0000 N   0  0  0  0  0  0  0  0  0
    5.2745   -0.8179    0.0000 C   0  0  0  0  0  0  0  0  0
    4.4495   -0.8179    0.0000 C   0  0  0  0  0  0  0  0  0
    6.5120   -0.1034    0.0000 C   0  0  0  0  0  0  0  0  0
    6.9245    0.6111    0.0000 N   0  0  0  0  0  0  0  0  0
    7.7495    0.6111    0.0000 C   0  0  0  0  0  0  0  0  0
    8.1620   -0.1034    0.0000 C   0  0  0  0  0  0  0  0  0
    7.7495   -0.8179    0.0000 C   0  0  0  0  0  0  0  0  0
    6.9245   -0.8179    0.0000 N   0  0  0  0  0  0  0  0  0
    0.3245   -2.2468    0.0000 C   0  0  0  0  0  0  0  0  0
    0.7370   -2.9613    0.0000 O   0  0  0  0  0  0  0  0  0
   -0.5005   -2.2468    0.0000 C   0  0  0  0  0  0  0  0  0
   -0.9130   -1.5324    0.0000 C   0  0  0  0  0  0  0  0  0
   -0.5005   -0.8179    0.0000 C   0  0  0  0  0  0  0  0  0
   -1.3979   -2.1998    0.0000 C   0  0  0  0  0  0  0  0  0
   -2.1825   -1.9449    0.0000 C   0  0  0  0  0  0  0  0  0
   -2.1825   -1.1199    0.0000 C   0  0  0  0  0  0  0  0  0
   -1.3979   -0.8649    0.0000 C   0  0  0  0  0  0  0  0  0
  1  2  2  0  0  0  0
  2  3  1  0  0  0  0
  2 24  1  0  0  0  0
  3  4  1  0  0  0  0
  3 20  1  0  0  0  0
  4  5  1  0  0  0  0
  5  6  1  0  0  0  0
  6  7  1  0  0  0  0
  7  8  1  0  0  0  0
  8  9  1  0  0  0  0
  8 13  1  0  0  0  0
  9 10  1  0  0  0  0
 10 11  1  0  0  0  0
 11 12  1  0  0  0  0
 11 14  1  0  0  0  0
 12 13  1  0  0  0  0
 14 15  4  0  0  0  0
 14 19  4  0  0  0  0
 15 16  4  0  0  0  0
 16 17  4  0  0  0  0
 17 18  4  0  0  0  0
 18 19  4  0  0  0  0
 20 21  2  0  0  0  0
 20 22  1  0  0  0  0
 22 23  1  0  0  0  0
 23 24  1  0  0  0  0
 23 25  1  0  0  0  0
 23 28  1  0  0  0  0
 25 26  1  0  0  0  0
 26 27  1  0  0  0  0
 27 28  1  0  0  0  0
M  END
>  <Name_Molregno>
BUSPIRONE

>  <5-HT1A>
7.57

>  <5-HT1D>
5

>  <5-HT2A>
6.86

>  <5-HT2C>
6.31

>  <DOPAMINE D2>
7.89

>  <DOPAMINE D4>
6.99

$$$$
BW-723C86
  Marvin  02231216192D 0   1.00000     0.00000     0

 20 22  0  0  1  0  0  0  0  0999 V2000
    5.9230   -0.7378    0.0000 S   0  0  0  0  0  0  0  0  0
    6.4751   -1.3509    0.0000 C   0  0  0  0  0  0  0  0  0
    6.0626   -2.0654    0.0000 C   0  0  0  0  0  0  0  0  0
    5.2556   -1.8938    0.0000 C   0  0  0  0  0  0  0  0  0
    5.1694   -1.0734    0.0000 C   0  0  0  0  0  0  0  0  0
    4.4549   -0.6609    0.0000 C   0  0  0  0  0  0  0  0  0
    3.7404   -1.0734    0.0000 O   0  0  0  0  0  0  0  0  0
    3.0259   -0.6609    0.0000 C   0  0  0  0  0  0  0  0  0
    2.3115   -1.0734    0.0000 C   0  0  0  0  0  0  0  0  0
    1.5970   -0.6609    0.0000 C   0  0  0  0  0  0  0  0  0
    1.5970    0.1641    0.0000 C   0  0  0  0  0  0  0  0  0
    0.8124    0.4191    0.0000 N   0  0  0  0  0  0  0  0  0
    0.3275   -0.2484    0.0000 C   0  0  0  0  0  0  0  0  0
    0.8124   -0.9158    0.0000 C   0  0  0  0  0  0  0  0  0
    0.5574   -1.7004    0.0000 C   0  0  0  0  0  0  0  0  0
   -0.2495   -1.8720    0.0000 C   0  0  0  0  0  0  0  0  0
   -0.5045   -2.6566    0.0000 N   0  0  0  0  0  0  0  0  0
   -0.8016   -1.2589    0.0000 C   0  0  0  0  0  0  0  0  0
    2.3115    0.5766    0.0000 C   0  0  0  0  0  0  0  0  0
    3.0259    0.1641    0.0000 C   0  0  0  0  0  0  0  0  0
  1  2  4  0  0  0  0
  1  5  4  0  0  0  0
  2  3  4  0  0  0  0
  3  4  4  0  0  0  0
  4  5  4  0  0  0  0
  5  6  1  0  0  0  0
  6  7  1  0  0  0  0
  7  8  1  0  0  0  0
  8  9  4  0  0  0  0
  8 20  4  0  0  0  0
  9 10  4  0  0  0  0
 10 11  4  0  0  0  0
 10 14  4  0  0  0  0
 11 12  4  0  0  0  0
 11 19  4  0  0  0  0
 12 13  4  0  0  0  0
 13 14  4  0  0  0  0
 14 15  1  0  0  0  0
 15 16  1  0  0  0  0
 16 17  1  0  0  0  0
 16 18  1  0  0  0  0
 19 20  4  0  0  0  0
M  STY  1   1 DAT
M  SAL   1  1  12
M  SDT   1 MRV_IMPLICIT_H                                        
M  SDD   1     0.0000    0.0000    DR    ALL  0       0  
M  SED   1 IMPL_H1
M  END
>  <Name_Molregno>
BW-723C86

>  <5-HT1B>
6.9

>  <5-HT1D>
6.33

>  <5-HT1E>
5.5

>  <5-HT2A>
6.99

>  <5-HT2C>
6.64

>  <5-HT6>
6.4

>  <5-HT7>
5.5

>  <DOPAMINE D4>
5

$$$$
Cabergoline
  Marvin  02231216192D 0   1.00000     0.00000     0

 33 36  0  0  1  0  0  0  0  0999 V2000
    0.1488   -3.1643    0.0000 O   0  0  0  0  0  0  0  0  0
   -0.5651   -2.7509    0.0000 C   0  0  0  0  0  0  0  0  0
   -1.2801   -3.1625    0.0000 N   0  0  0  0  0  0  0  0  0
   -1.2811   -3.9875    0.0000 C   0  0  0  0  0  0  0  0  0
   -1.9961   -4.3992    0.0000 C   0  0  0  0  0  0  0  0  0
   -1.9970   -5.2242    0.0000 C   0  0  0  0  0  0  0  0  0
   -2.7120   -5.6358    0.0000 N   0  0  0  0  0  0  0  0  0
   -2.7130   -6.4608    0.0000 C   0  0  0  0  0  0  0  0  0
   -3.4260   -5.2225    0.0000 C   0  0  0  0  0  0  0  0  0
   -1.9941   -2.7492    0.0000 C   0  0  0  0  0  0  0  0  0
   -2.7090   -3.1608    0.0000 O   0  0  0  0  0  0  0  0  0
   -1.9931   -1.9242    0.0000 N   0  0  0  0  0  0  0  0  0
   -2.7071   -1.5108    0.0000 C   0  0  0  0  0  0  0  0  0
   -3.4220   -1.9225    0.0000 C   0  0  0  0  0  0  0  0  0
   -0.5641   -1.9259    0.0000 C   0  0  0  0  0  0  0  0  0
    0.1508   -1.5143    0.0000 C   0  0  0  0  0  0  0  0  0
    0.1518   -0.6893    0.0000 C   0  0  0  0  0  0  0  0  0
   -0.5622   -0.2759    0.0000 C   0  0  0  0  0  0  0  0  0
   -1.2771   -0.6875    0.0000 N   0  0  0  0  0  0  0  0  0
   -1.2781   -1.5125    0.0000 C   0  0  0  0  0  0  0  0  0
   -1.9911   -0.2742    0.0000 C   0  0  0  0  0  0  0  0  0
   -2.7061   -0.6858    0.0000 C   0  0  0  0  0  0  0  0  0
   -3.4201   -0.2725    0.0000 C   0  0  0  0  0  0  0  0  0
   -0.5607    0.5482    0.0000 C   0  0  0  0  0  0  0  0  0
    0.1518    0.9607    0.0000 C   0  0  0  0  0  0  0  0  0
    0.8643    0.5482    0.0000 C   0  0  0  0  0  0  0  0  0
    0.8643   -0.2768    0.0000 C   0  0  0  0  0  0  0  0  0
    1.5822   -0.6893    0.0000 C   0  0  0  0  0  0  0  0  0
    2.2947   -0.2768    0.0000 C   0  0  0  0  0  0  0  0  0
    2.2947    0.5482    0.0000 C   0  0  0  0  0  0  0  0  0
    1.5822    0.9607    0.0000 C   0  0  0  0  0  0  0  0  0
    1.2768    1.8179    0.0000 N   0  0  0  0  0  0  0  0  0
    0.4518    1.8179    0.0000 C   0  0  0  0  0  0  0  0  0
  1  2  2  0  0  0  0
  2  3  1  0  0  0  0
  2 15  1  0  0  0  0
  3  4  1  0  0  0  0
  3 10  1  0  0  0  0
  4  5  1  0  0  0  0
  5  6  1  0  0  0  0
  6  7  1  0  0  0  0
  7  8  1  0  0  0  0
  7  9  1  0  0  0  0
 10 11  2  0  0  0  0
 10 12  1  0  0  0  0
 12 13  1  0  0  0  0
 13 14  1  0  0  0  0
 15 16  1  0  0  0  0
 15 20  1  0  0  0  0
 16 17  1  0  0  0  0
 17 18  1  0  0  0  0
 17 27  1  0  0  0  0
 18 19  1  0  0  0  0
 18 24  1  0  0  0  0
 19 20  1  0  0  0  0
 19 21  1  0  0  0  0
 21 22  1  0  0  0  0
 22 23  2  0  0  0  0
 24 25  1  0  0  0  0
 25 26  4  0  0  0  0
 25 33  4  0  0  0  0
 26 27  4  0  0  0  0
 26 31  4  0  0  0  0
 27 28  4  0  0  0  0
 28 29  4  0  0  0  0
 29 30  4  0  0  0  0
 30 31  4  0  0  0  0
 31 32  4  0  0  0  0
 32 33  4  0  0  0  0
M  STY  1   1 DAT
M  SAL   1  1  32
M  SDT   1 MRV_IMPLICIT_H                                        
M  SDD   1     0.0000    0.0000    DR    ALL  0       0  
M  SED   1 IMPL_H1
M  END
>  <Name_Molregno>
Cabergoline

>  <5-HT1A>
7.7

>  <5-HT1B>
6.32

>  <5-HT1D>
8.06

>  <5-HT2A>
8.21

>  <5-HT2C>
6.16

>  <Alpha-1A>
6.54

>  <Alpha-1B>
7.22

>  <Alpha-2A>
7.92

>  <Alpha-2B>
7.14

>  <Alpha-2C>
7.65

>  <Beta-1>
5

>  <Beta-2>
5

>  <DOPAMINE D1>
6.67

>  <DOPAMINE D2>
9.12

>  <DOPAMINE D3>
9.1

>  <DOPAMINE D4>
7.25

>  <DOPAMINE D5>
7.65

$$$$
Cathinone
  Marvin  02231216192D 0   1.00000     0.00000     0

 11 11  0  0  1  0  0  0  0  0999 V2000
    1.9974    0.2298    0.0000 O   0  0  0  0  0  0  0  0  0
    1.2829   -0.1827    0.0000 C   0  0  0  0  0  0  0  0  0
    0.5684    0.2298    0.0000 C   0  0  0  0  0  0  0  0  0
    0.5684    1.0548    0.0000 N   0  0  0  0  0  0  0  0  0
   -0.1461   -0.1827    0.0000 C   0  0  0  0  0  0  0  0  0
    1.2829   -1.0077    0.0000 C   0  0  0  0  0  0  0  0  0
    1.9974   -1.4202    0.0000 C   0  0  0  0  0  0  0  0  0
    1.9974   -2.2452    0.0000 C   0  0  0  0  0  0  0  0  0
    1.2829   -2.6577    0.0000 C   0  0  0  0  0  0  0  0  0
    0.5684   -2.2452    0.0000 C   0  0  0  0  0  0  0  0  0
    0.5684   -1.4202    0.0000 C   0  0  0  0  0  0  0  0  0
  1  2  2  0  0  0  0
  2  3  1  0  0  0  0
  2  6  1  0  0  0  0
  3  4  1  0  0  0  0
  3  5  1  0  0  0  0
  6  7  4  0  0  0  0
  6 11  4  0  0  0  0
  7  8  4  0  0  0  0
  8  9  4  0  0  0  0
  9 10  4  0  0  0  0
 10 11  4  0  0  0  0
M  END
>  <Name_Molregno>
Cathinone

>  <5-HT1A>
5

>  <5-HT1B>
5

>  <5-HT1D>
5

>  <5-HT1E>
5

>  <5-HT3>
5

>  <5-HT5>
5

>  <5-HT6>
5

>  <5-HT7>
5.57

>  <Alpha-1A>
5

>  <Alpha-1B>
5

>  <Alpha-2A>
5.17

>  <Alpha-2B>
6.04

>  <Alpha-2C>
6.12

>  <Beta-1>
5

>  <Beta-2>
5

>  <DOPAMINE D1>
5

>  <DOPAMINE D2>
5

>  <DOPAMINE D4>
5

>  <DOPAMINE D5>
5

>  <Dopamine transporter>
6.37

>  <HISTAMINE H1>
5

>  <HISTAMINE H2>
5

>  <HISTAMINE H4>
5

>  <Muscarinic acetylcholine receptor M1>
5

>  <Muscarinic acetylcholine receptor M2>
5

>  <Muscarinic acetylcholine receptor M3>
5

>  <Muscarinic acetylcholine receptor M4>
5

>  <Muscarinic acetylcholine receptor M5>
5

>  <Norepinephrine transporter>
6.76

>  <Serotonin transporter>
5.32

$$$$
CELECOXIB
  Marvin  02231216192D 0   1.00000     0.00000     0

 26 28  0  0  0  0  0  0  0  0999 V2000
   -2.2304    2.3034    0.0000 S   0  0  0  0  0  0  0  0  0
   -2.2304    3.1284    0.0000 O   0  0  0  0  0  0  0  0  0
   -3.0554    2.3034    0.0000 O   0  0  0  0  0  0  0  0  0
   -1.4054    2.3034    0.0000 N   0  0  0  0  0  0  0  0  0
   -2.2304    1.4784    0.0000 C   0  0  0  0  0  0  0  0  0
   -1.5159    1.0659    0.0000 C   0  0  0  0  0  0  0  0  0
   -1.5159    0.2409    0.0000 C   0  0  0  0  0  0  0  0  0
   -2.2304   -0.1716    0.0000 C   0  0  0  0  0  0  0  0  0
   -2.2304   -0.9966    0.0000 N   0  0  0  0  0  0  0  0  0
   -1.5629   -1.4815    0.0000 N   0  0  0  0  0  0  0  0  0
   -1.8179   -2.2662    0.0000 C   0  0  0  0  0  0  0  0  0
   -2.6429   -2.2662    0.0000 C   0  0  0  0  0  0  0  0  0
   -2.8978   -1.4815    0.0000 C   0  0  0  0  0  0  0  0  0
   -3.6824   -1.2266    0.0000 C   0  0  0  0  0  0  0  0  0
   -4.2955   -1.7786    0.0000 C   0  0  0  0  0  0  0  0  0
   -5.0802   -1.5237    0.0000 C   0  0  0  0  0  0  0  0  0
   -5.2517   -0.7167    0.0000 C   0  0  0  0  0  0  0  0  0
   -4.6386   -0.1647    0.0000 C   0  0  0  0  0  0  0  0  0
   -3.8540   -0.4196    0.0000 C   0  0  0  0  0  0  0  0  0
   -6.0363   -0.4618    0.0000 C   0  0  0  0  0  0  0  0  0
   -1.3330   -2.9336    0.0000 C   0  0  0  0  0  0  0  0  0
   -0.8480   -3.6010    0.0000 F   0  0  0  0  0  0  0  0  0
   -2.0004   -3.4185    0.0000 F   0  0  0  0  0  0  0  0  0
   -0.6655   -2.4487    0.0000 F   0  0  0  0  0  0  0  0  0
   -2.9448    0.2409    0.0000 C   0  0  0  0  0  0  0  0  0
   -2.9448    1.0659    0.0000 C   0  0  0  0  0  0  0  0  0
  1  2  2  0  0  0  0
  1  3  2  0  0  0  0
  1  4  1  0  0  0  0
  1  5  1  0  0  0  0
  5  6  4  0  0  0  0
  5 26  4  0  0  0  0
  6  7  4  0  0  0  0
  7  8  4  0  0  0  0
  8  9  1  0  0  0  0
  8 25  4  0  0  0  0
  9 10  4  0  0  0  0
  9 13  4  0  0  0  0
 10 11  4  0  0  0  0
 11 12  4  0  0  0  0
 11 21  1  0  0  0  0
 12 13  4  0  0  0  0
 13 14  1  0  0  0  0
 14 15  4  0  0  0  0
 14 19  4  0  0  0  0
 15 16  4  0  0  0  0
 16 17  4  0  0  0  0
 17 18  4  0  0  0  0
 17 20  1  0  0  0  0
 18 19  4  0  0  0  0
 21 22  1  0  0  0  0
 21 23  1  0  0  0  0
 21 24  1  0  0  0  0
 25 26  4  0  0  0  0
M  END
>  <Name_Molregno>
CELECOXIB

>  <5-HT1A>
5

>  <5-HT1B>
5

>  <5-HT1D>
5

>  <5-HT1E>
5

>  <5-HT2A>
5

>  <5-HT3>
5

>  <5-HT6>
5

>  <5-HT7>
5

>  <Alpha-1A>
5

>  <Alpha-1B>
5

>  <Alpha-2A>
5

>  <Alpha-2B>
5

>  <Alpha-2C>
5

>  <DOPAMINE D1>
5

>  <DOPAMINE D2>
5

>  <DOPAMINE D4>
5

>  <DOPAMINE D5>
5

>  <Dopamine transporter>
6.18

>  <HISTAMINE H1>
5

>  <HISTAMINE H2>
5

>  <Muscarinic acetylcholine receptor M2>
5

>  <Muscarinic acetylcholine receptor M5>
5

>  <Norepinephrine transporter>
5

>  <Serotonin transporter>
5

$$$$
chlorproethazine
  Marvin  02231216192D 0   1.00000     0.00000     0

 23 25  0  0  0  0  0  0  0  0999 V2000
   -5.7566   -2.6620    0.0000 Cl  0  0  0  0  0  0  0  0  0
   -5.3441   -1.9475    0.0000 C   0  0  0  0  0  0  0  0  0
   -4.5191   -1.9475    0.0000 C   0  0  0  0  0  0  0  0  0
   -4.1066   -1.2331    0.0000 C   0  0  0  0  0  0  0  0  0
   -3.2816   -1.2331    0.0000 N   0  0  0  0  0  0  0  0  0
   -2.8691   -0.5186    0.0000 C   0  0  0  0  0  0  0  0  0
   -3.2816    0.1959    0.0000 C   0  0  0  0  0  0  0  0  0
   -4.1066    0.1959    0.0000 S   0  0  0  0  0  0  0  0  0
   -4.5191   -0.5186    0.0000 C   0  0  0  0  0  0  0  0  0
   -5.3441   -0.5186    0.0000 C   0  0  0  0  0  0  0  0  0
   -5.7566   -1.2331    0.0000 C   0  0  0  0  0  0  0  0  0
   -2.8691    0.9103    0.0000 C   0  0  0  0  0  0  0  0  0
   -2.0441    0.9103    0.0000 C   0  0  0  0  0  0  0  0  0
   -1.6316    0.1959    0.0000 C   0  0  0  0  0  0  0  0  0
   -2.0441   -0.5186    0.0000 C   0  0  0  0  0  0  0  0  0
   -2.8691   -1.9475    0.0000 C   0  0  0  0  0  0  0  0  0
   -2.0441   -1.9475    0.0000 C   0  0  0  0  0  0  0  0  0
   -1.6316   -2.6620    0.0000 C   0  0  0  0  0  0  0  0  0
   -0.8066   -2.6620    0.0000 N   0  0  0  0  0  0  0  0  0
   -0.3941   -3.3765    0.0000 C   0  0  0  0  0  0  0  0  0
    0.4309   -3.3765    0.0000 C   0  0  0  0  0  0  0  0  0
   -0.3941   -1.9475    0.0000 C   0  0  0  0  0  0  0  0  0
    0.4309   -1.9475    0.0000 C   0  0  0  0  0  0  0  0  0
  1  2  1  0  0  0  0
  2  3  4  0  0  0  0
  2 11  4  0  0  0  0
  3  4  4  0  0  0  0
  4  5  1  0  0  0  0
  4  9  4  0  0  0  0
  5  6  1  0  0  0  0
  5 16  1  0  0  0  0
  6  7  4  0  0  0  0
  6 15  4  0  0  0  0
  7  8  1  0  0  0  0
  7 12  4  0  0  0  0
  8  9  1  0  0  0  0
  9 10  4  0  0  0  0
 10 11  4  0  0  0  0
 12 13  4  0  0  0  0
 13 14  4  0  0  0  0
 14 15  4  0  0  0  0
 16 17  1  0  0  0  0
 17 18  1  0  0  0  0
 18 19  1  0  0  0  0
 19 20  1  0  0  0  0
 19 22  1  0  0  0  0
 20 21  1  0  0  0  0
 22 23  1  0  0  0  0
M  END
>  <Name_Molregno>
chlorproethazine

>  <DOPAMINE D2>
7.98

>  <DOPAMINE D3>
7.98

>  <DOPAMINE D4>
7.64

$$$$
CHLORPROMAZINE
  Marvin  02231216192D 0   1.00000     0.00000     0

 21 23  0  0  0  0  0  0  0  0999 V2000
   -1.3730   -3.5598    0.0000 Cl  0  0  0  0  0  0  0  0  0
   -2.0875   -3.1473    0.0000 C   0  0  0  0  0  0  0  0  0
   -2.0875   -2.3223    0.0000 C   0  0  0  0  0  0  0  0  0
   -2.8019   -1.9098    0.0000 C   0  0  0  0  0  0  0  0  0
   -2.8019   -1.0848    0.0000 N   0  0  0  0  0  0  0  0  0
   -3.5164   -0.6723    0.0000 C   0  0  0  0  0  0  0  0  0
   -4.2309   -1.0848    0.0000 C   0  0  0  0  0  0  0  0  0
   -4.2309   -1.9098    0.0000 S   0  0  0  0  0  0  0  0  0
   -3.5164   -2.3223    0.0000 C   0  0  0  0  0  0  0  0  0
   -3.5164   -3.1473    0.0000 C   0  0  0  0  0  0  0  0  0
   -2.8019   -3.5598    0.0000 C   0  0  0  0  0  0  0  0  0
   -4.9453   -0.6723    0.0000 C   0  0  0  0  0  0  0  0  0
   -4.9453    0.1527    0.0000 C   0  0  0  0  0  0  0  0  0
   -4.2309    0.5652    0.0000 C   0  0  0  0  0  0  0  0  0
   -3.5164    0.1527    0.0000 C   0  0  0  0  0  0  0  0  0
   -2.0875   -0.6723    0.0000 C   0  0  0  0  0  0  0  0  0
   -1.3730   -1.0848    0.0000 C   0  0  0  0  0  0  0  0  0
   -0.6585   -0.6723    0.0000 C   0  0  0  0  0  0  0  0  0
    0.0560   -1.0848    0.0000 N   0  0  0  0  0  0  0  0  0
    0.7704   -0.6723    0.0000 C   0  0  0  0  0  0  0  0  0
    0.0560   -1.9098    0.0000 C   0  0  0  0  0  0  0  0  0
  1  2  1  0  0  0  0
  2  3  4  0  0  0  0
  2 11  4  0  0  0  0
  3  4  4  0  0  0  0
  4  5  1  0  0  0  0
  4  9  4  0  0  0  0
  5  6  1  0  0  0  0
  5 16  1  0  0  0  0
  6  7  4  0  0  0  0
  6 15  4  0  0  0  0
  7  8  1  0  0  0  0
  7 12  4  0  0  0  0
  8  9  1  0  0  0  0
  9 10  4  0  0  0  0
 10 11  4  0  0  0  0
 12 13  4  0  0  0  0
 13 14  4  0  0  0  0
 14 15  4  0  0  0  0
 16 17  1  0  0  0  0
 17 18  1  0  0  0  0
 18 19  1  0  0  0  0
 19 20  1  0  0  0  0
 19 21  1  0  0  0  0
M  END
>  <Name_Molregno>
CHLORPROMAZINE

>  <5-HT1A>
5.98

>  <5-HT1B>
5.83

>  <5-HT1D>
6.34

>  <5-HT1E>
6.46

>  <5-HT2A>
8.36

>  <5-HT2C>
7.74

>  <5-HT3>
6.01

>  <5-HT5>
6.93

>  <5-HT6>
7.59

>  <5-HT7>
7.54

>  <Alpha-1A>
9.55

>  <Alpha-1B>
9.09

>  <Alpha-2A>
6.71

>  <Alpha-2B>
7.81

>  <Alpha-2C>
7.36

>  <Beta-1>
5

>  <Beta-2>
5

>  <DOPAMINE D1>
7.1

>  <DOPAMINE D2>
8.51

>  <DOPAMINE D3>
8.58

>  <DOPAMINE D4>
8.03

>  <DOPAMINE D5>
6.82

>  <Dopamine transporter>
5

>  <HISTAMINE H1>
8.47

>  <HISTAMINE H2>
6.76

>  <HISTAMINE H3>
6

>  <HISTAMINE H4>
6.3

>  <Muscarinic acetylcholine receptor M1>
7.36

>  <Muscarinic acetylcholine receptor M2>
6.67

>  <Muscarinic acetylcholine receptor M3>
7.25

>  <Muscarinic acetylcholine receptor M4>
7.11

>  <Muscarinic acetylcholine receptor M5>
7.5

>  <Norepinephrine transporter>
5.61

>  <Serotonin transporter>
6.54

$$$$
CHLORPROTHIXENE
  Marvin  02231216192D 0   1.00000     0.00000     0

 21 23  0  0  0  0  0  0  0  0999 V2000
    5.5918   -1.4384    0.0000 Cl  0  0  0  0  0  0  0  0  0
    4.8773   -1.0259    0.0000 C   0  0  0  0  0  0  0  0  0
    4.1628   -1.4384    0.0000 C   0  0  0  0  0  0  0  0  0
    3.4484   -1.0259    0.0000 C   0  0  0  0  0  0  0  0  0
    3.4484   -0.2009    0.0000 C   0  0  0  0  0  0  0  0  0
    2.7339    0.2116    0.0000 S   0  0  0  0  0  0  0  0  0
    2.0194   -0.2009    0.0000 C   0  0  0  0  0  0  0  0  0
    2.0194   -1.0259    0.0000 C   0  0  0  0  0  0  0  0  0
    1.3049   -1.4384    0.0000 C   0  0  0  0  0  0  0  0  0
    0.5905   -1.0259    0.0000 C   0  0  0  0  0  0  0  0  0
    0.5905   -0.2009    0.0000 C   0  0  0  0  0  0  0  0  0
    1.3049    0.2116    0.0000 C   0  0  0  0  0  0  0  0  0
    2.7339   -1.4384    0.0000 C   0  0  0  0  0  0  0  0  0
    2.7339   -2.2634    0.0000 C   0  0  0  0  0  0  0  0  0
    2.0194   -2.6759    0.0000 C   0  0  0  0  0  0  0  0  0
    2.0194   -3.5009    0.0000 C   0  0  0  0  0  0  0  0  0
    1.3049   -3.9134    0.0000 N   0  0  0  0  0  0  0  0  0
    1.3049   -4.7384    0.0000 C   0  0  0  0  0  0  0  0  0
    0.5905   -3.5009    0.0000 C   0  0  0  0  0  0  0  0  0
    4.1628    0.2116    0.0000 C   0  0  0  0  0  0  0  0  0
    4.8773   -0.2009    0.0000 C   0  0  0  0  0  0  0  0  0
  1  2  1  0  0  0  0
  2  3  4  0  0  0  0
  2 21  4  0  0  0  0
  3  4  4  0  0  0  0
  4  5  4  0  0  0  0
  4 13  1  0  0  0  0
  5  6  1  0  0  0  0
  5 20  4  0  0  0  0
  6  7  1  0  0  0  0
  7  8  4  0  0  0  0
  7 12  4  0  0  0  0
  8  9  4  0  0  0  0
  8 13  1  0  0  0  0
  9 10  4  0  0  0  0
 10 11  4  0  0  0  0
 11 12  4  0  0  0  0
 13 14  2  0  0  0  0
 14 15  1  0  0  0  0
 15 16  1  0  0  0  0
 16 17  1  0  0  0  0
 17 18  1  0  0  0  0
 17 19  1  0  0  0  0
 20 21  4  0  0  0  0
M  END
>  <Name_Molregno>
CHLORPROTHIXENE

>  <5-HT2A>
9.37

>  <DOPAMINE D1>
7.74

>  <DOPAMINE D2>
8.37

>  <DOPAMINE D3>
8.34

>  <DOPAMINE D4>
9.19

>  <DOPAMINE D5>
8.05

>  <HISTAMINE H1>
8.43

>  <HISTAMINE H3>
6

>  <Muscarinic acetylcholine receptor M1>
7.96

>  <Muscarinic acetylcholine receptor M2>
7.55

>  <Muscarinic acetylcholine receptor M3>
7.66

>  <Muscarinic acetylcholine receptor M4>
7.74

>  <Muscarinic acetylcholine receptor M5>
7.6

$$$$
cis-Thiothixene
  Marvin  02231216192D 0   1.00000     0.00000     0

 30 33  0  0  0  0  0  0  0  0999 V2000
    1.0940   -3.6931    0.0000 S   0  0  0  0  0  0  0  0  0
    1.8085   -3.2806    0.0000 C   0  0  0  0  0  0  0  0  0
    1.8085   -2.4556    0.0000 C   0  0  0  0  0  0  0  0  0
    2.5230   -2.0431    0.0000 C   0  0  0  0  0  0  0  0  0
    3.2375   -2.4556    0.0000 C   0  0  0  0  0  0  0  0  0
    3.9519   -2.0431    0.0000 S   0  0  0  0  0  0  0  0  0
    3.5394   -1.3286    0.0000 O   0  0  0  0  0  0  0  0  0
    4.3644   -2.7575    0.0000 O   0  0  0  0  0  0  0  0  0
    4.6664   -1.6306    0.0000 N   0  0  0  0  0  0  0  0  0
    5.3809   -2.0431    0.0000 C   0  0  0  0  0  0  0  0  0
    4.6664   -0.8056    0.0000 C   0  0  0  0  0  0  0  0  0
    3.2375   -3.2806    0.0000 C   0  0  0  0  0  0  0  0  0
    2.5230   -3.6931    0.0000 C   0  0  0  0  0  0  0  0  0
    1.0940   -2.0431    0.0000 C   0  0  0  0  0  0  0  0  0
    0.3796   -2.4556    0.0000 C   0  0  0  0  0  0  0  0  0
    0.3796   -3.2806    0.0000 C   0  0  0  0  0  0  0  0  0
   -0.3349   -3.6931    0.0000 C   0  0  0  0  0  0  0  0  0
   -1.0494   -3.2806    0.0000 C   0  0  0  0  0  0  0  0  0
   -1.0494   -2.4556    0.0000 C   0  0  0  0  0  0  0  0  0
   -0.3349   -2.0431    0.0000 C   0  0  0  0  0  0  0  0  0
    1.0940   -1.2181    0.0000 C   0  0  0  0  0  0  0  0  0
    0.3796   -0.8056    0.0000 C   0  0  0  0  0  0  0  0  0
   -0.3349   -1.2181    0.0000 C   0  0  0  0  0  0  0  0  0
   -1.0494   -0.8056    0.0000 N   0  0  0  0  0  0  0  0  0
   -1.7638   -1.2181    0.0000 C   0  0  0  0  0  0  0  0  0
   -2.4783   -0.8056    0.0000 C   0  0  0  0  0  0  0  0  0
   -2.4783    0.0194    0.0000 N   0  0  0  0  0  0  0  0  0
   -1.7638    0.4319    0.0000 C   0  0  0  0  0  0  0  0  0
   -1.0494    0.0194    0.0000 C   0  0  0  0  0  0  0  0  0
   -3.1928    0.4319    0.0000 C   0  0  0  0  0  0  0  0  0
  1  2  1  0  0  0  0
  1 16  1  0  0  0  0
  2  3  4  0  0  0  0
  2 13  4  0  0  0  0
  3  4  4  0  0  0  0
  3 14  1  0  0  0  0
  4  5  4  0  0  0  0
  5  6  1  0  0  0  0
  5 12  4  0  0  0  0
  6  7  2  0  0  0  0
  6  8  2  0  0  0  0
  6  9  1  0  0  0  0
  9 10  1  0  0  0  0
  9 11  1  0  0  0  0
 12 13  4  0  0  0  0
 14 15  1  0  0  0  0
 14 21  2  0  0  0  0
 15 16  4  0  0  0  0
 15 20  4  0  0  0  0
 16 17  4  0  0  0  0
 17 18  4  0  0  0  0
 18 19  4  0  0  0  0
 19 20  4  0  0  0  0
 21 22  1  0  0  0  0
 22 23  1  0  0  0  0
 23 24  1  0  0  0  0
 24 25  1  0  0  0  0
 24 29  1  0  0  0  0
 25 26  1  0  0  0  0
 26 27  1  0  0  0  0
 27 28  1  0  0  0  0
 27 30  1  0  0  0  0
 28 29  1  0  0  0  0
M  END
>  <Name_Molregno>
cis-Thiothixene

>  <5-HT1A>
6.39

>  <5-HT1B>
6.82

>  <5-HT1D>
6.18

>  <5-HT1E>
5

>  <5-HT2A>
7.42

>  <5-HT2C>
5.87

>  <5-HT3>
5.73

>  <5-HT5>
6.44

>  <5-HT6>
6.62

>  <5-HT7>
7.82

>  <Alpha-1A>
7.94

>  <Alpha-1B>
7.46

>  <Alpha-2A>
7.1

>  <Alpha-2B>
7.3

>  <Alpha-2C>
7.28

>  <Beta-1>
5

>  <Beta-2>
5

>  <DOPAMINE D1>
7.29

>  <DOPAMINE D2>
9.56

>  <DOPAMINE D3>
9.41

>  <DOPAMINE D4>
6.86

>  <DOPAMINE D5>
6.58

>  <Dopamine transporter>
5

>  <HISTAMINE H1>
8.23

>  <HISTAMINE H2>
6.39

>  <HISTAMINE H4>
5

>  <Muscarinic acetylcholine receptor M1>
5.3

>  <Muscarinic acetylcholine receptor M2>
5.34

>  <Muscarinic acetylcholine receptor M3>
5.27

>  <Muscarinic acetylcholine receptor M4>
5.4

>  <Muscarinic acetylcholine receptor M5>
5.32

>  <Norepinephrine transporter>
5

>  <Serotonin transporter>
5.41

$$$$
CLOZAPINE
  Marvin  02231216192D 0   1.00000     0.00000     0

 23 26  0  0  0  0  0  0  0  0999 V2000
   -0.5622   -2.2603    0.0000 Cl  0  0  0  0  0  0  0  0  0
    0.2262   -2.5035    0.0000 C   0  0  0  0  0  0  0  0  0
    0.8309   -1.9424    0.0000 C   0  0  0  0  0  0  0  0  0
    1.6193   -2.1855    0.0000 C   0  0  0  0  0  0  0  0  0
    2.1337   -1.5405    0.0000 N   0  0  0  0  0  0  0  0  0
    2.9587   -1.5405    0.0000 C   0  0  0  0  0  0  0  0  0
    3.3166   -0.7972    0.0000 N   0  0  0  0  0  0  0  0  0
    2.8519   -0.1156    0.0000 C   0  0  0  0  0  0  0  0  0
    3.2098    0.6277    0.0000 C   0  0  0  0  0  0  0  0  0
    4.0325    0.6894    0.0000 N   0  0  0  0  0  0  0  0  0
    4.4973    0.0077    0.0000 C   0  0  0  0  0  0  0  0  0
    4.1393   -0.7356    0.0000 C   0  0  0  0  0  0  0  0  0
    4.3905    1.4327    0.0000 C   0  0  0  0  0  0  0  0  0
    3.4730   -2.1855    0.0000 C   0  0  0  0  0  0  0  0  0
    3.2895   -2.9898    0.0000 C   0  0  0  0  0  0  0  0  0
    2.5462   -3.3478    0.0000 N   0  0  0  0  0  0  0  0  0
    1.8029   -2.9898    0.0000 C   0  0  0  0  0  0  0  0  0
    1.1981   -3.5510    0.0000 C   0  0  0  0  0  0  0  0  0
    0.4098   -3.3078    0.0000 C   0  0  0  0  0  0  0  0  0
    3.8942   -3.5510    0.0000 C   0  0  0  0  0  0  0  0  0
    4.6826   -3.3078    0.0000 C   0  0  0  0  0  0  0  0  0
    4.8662   -2.5035    0.0000 C   0  0  0  0  0  0  0  0  0
    4.2614   -1.9424    0.0000 C   0  0  0  0  0  0  0  0  0
  1  2  1  0  0  0  0
  2  3  4  0  0  0  0
  2 19  4  0  0  0  0
  3  4  4  0  0  0  0
  4  5  1  0  0  0  0
  4 17  4  0  0  0  0
  5  6  1  0  0  0  0
  6  7  1  0  0  0  0
  6 14  2  0  0  0  0
  7  8  1  0  0  0  0
  7 12  1  0  0  0  0
  8  9  1  0  0  0  0
  9 10  1  0  0  0  0
 10 11  1  0  0  0  0
 10 13  1  0  0  0  0
 11 12  1  0  0  0  0
 14 15  1  0  0  0  0
 14 23  1  0  0  0  0
 15 16  2  0  0  0  0
 15 20  1  0  0  0  0
 16 17  1  0  0  0  0
 17 18  4  0  0  0  0
 18 19  4  0  0  0  0
 20 21  2  0  0  0  0
 21 22  1  0  0  0  0
 22 23  2  0  0  0  0
M  END
>  <Name_Molregno>
CLOZAPINE

>  <5-HT1A>
6.88

>  <5-HT1B>
6.33

>  <5-HT1D>
6.27

>  <5-HT1E>
6.19

>  <5-HT2A>
8.22

>  <5-HT2C>
8

>  <5-HT3>
6.62

>  <5-HT5>
5.41

>  <5-HT6>
7.9

>  <5-HT7>
8.05

>  <Alpha-1A>
8.8

>  <Alpha-1B>
8.15

>  <Alpha-2A>
7.15

>  <Alpha-2B>
7.61

>  <Alpha-2C>
7.88

>  <Beta-1>
5.15

>  <Beta-2>
5.39

>  <DOPAMINE D1>
6.69

>  <DOPAMINE D2>
6.9

>  <DOPAMINE D3>
6.62

>  <DOPAMINE D4>
7.62

>  <DOPAMINE D5>
6.62

>  <Dopamine transporter>
5

>  <HISTAMINE H1>
8.81

>  <HISTAMINE H2>
6.82

>  <HISTAMINE H3>
5.25

>  <HISTAMINE H4>
6.15

>  <Muscarinic acetylcholine receptor M1>
8.26

>  <Muscarinic acetylcholine receptor M2>
7.17

>  <Muscarinic acetylcholine receptor M3>
7.59

>  <Muscarinic acetylcholine receptor M4>
7.85

>  <Muscarinic acetylcholine receptor M5>
7.79

>  <Norepinephrine transporter>
5.5

>  <Serotonin transporter>
5.73

$$$$
CLOZAPINE-2
  Marvin  02231216192D 0   1.00000     0.00000     0

 23 26  0  0  0  0  0  0  0  0999 V2000
   -0.5622   -2.2603    0.0000 Cl  0  0  0  0  0  0  0  0  0
    0.2262   -2.5035    0.0000 C   0  0  0  0  0  0  0  0  0
    0.8309   -1.9424    0.0000 C   0  0  0  0  0  0  0  0  0
    1.6193   -2.1855    0.0000 C   0  0  0  0  0  0  0  0  0
    2.1337   -1.5405    0.0000 N   0  0  0  0  0  0  0  0  0
    2.9587   -1.5405    0.0000 C   0  0  0  0  0  0  0  0  0
    3.3166   -0.7972    0.0000 N   0  0  0  0  0  0  0  0  0
    2.8519   -0.1156    0.0000 C   0  0  0  0  0  0  0  0  0
    3.2098    0.6277    0.0000 C   0  0  0  0  0  0  0  0  0
    4.0325    0.6894    0.0000 N   0  0  0  0  0  0  0  0  0
    4.4973    0.0077    0.0000 C   0  0  0  0  0  0  0  0  0
    4.1393   -0.7356    0.0000 C   0  0  0  0  0  0  0  0  0
    4.3905    1.4327    0.0000 C   0  0  0  0  0  0  0  0  0
    3.4730   -2.1855    0.0000 C   0  0  0  0  0  0  0  0  0
    3.2895   -2.9898    0.0000 C   0  0  0  0  0  0  0  0  0
    2.5462   -3.3478    0.0000 N   0  0  0  0  0  0  0  0  0
    1.8029   -2.9898    0.0000 C   0  0  0  0  0  0  0  0  0
    1.1981   -3.5510    0.0000 C   0  0  0  0  0  0  0  0  0
    0.4098   -3.3078    0.0000 C   0  0  0  0  0  0  0  0  0
    3.8942   -3.5510    0.0000 C   0  0  0  0  0  0  0  0  0
    4.6826   -3.3078    0.0000 C   0  0  0  0  0  0  0  0  0
    4.8662   -2.5035    0.0000 C   0  0  0  0  0  0  0  0  0
    4.2614   -1.9424    0.0000 C   0  0  0  0  0  0  0  0  0
  1  2  1  0  0  0  0
  2  3  4  0  0  0  0
  2 19  4  0  0  0  0
  3  4  4  0  0  0  0
  4  5  1  0  0  0  0
  4 17  4  0  0  0  0
  5  6  2  0  0  0  0
  6  7  1  0  0  0  0
  6 14  1  0  0  0  0
  7  8  1  0  0  0  0
  7 12  1  0  0  0  0
  8  9  1  0  0  0  0
  9 10  1  0  0  0  0
 10 11  1  0  0  0  0
 10 13  1  0  0  0  0
 11 12  1  0  0  0  0
 14 15  4  0  0  0  0
 14 23  4  0  0  0  0
 15 16  1  0  0  0  0
 15 20  4  0  0  0  0
 16 17  1  0  0  0  0
 17 18  4  0  0  0  0
 18 19  4  0  0  0  0
 20 21  4  0  0  0  0
 21 22  4  0  0  0  0
 22 23  4  0  0  0  0
M  END
>  <Name_Molregno>
CLOZAPINE-2

>  <5-HT1A>
6.92

>  <5-HT2A>
8.15

>  <5-HT2C>
7.92

>  <5-HT3>
6.4

>  <5-HT5>
6

>  <5-HT6>
7.85

>  <5-HT7>
7.47

>  <Alpha-2A>
7.62

>  <Alpha-2C>
8.54

>  <DOPAMINE D1>
7

>  <DOPAMINE D2>
7.03

>  <DOPAMINE D3>
6.48

>  <DOPAMINE D4>
7.6

>  <DOPAMINE D5>
6.7

>  <HISTAMINE H1>
8.77

>  <HISTAMINE H3>
6.1

>  <HISTAMINE H4>
6.75

>  <Muscarinic acetylcholine receptor M1>
8.47

>  <Muscarinic acetylcholine receptor M4>
7.9

>  <Serotonin transporter>
5.41

$$$$
Cyamemazine
  Marvin  02231216192D 0   1.00000     0.00000     0

 23 25  0  0  1  0  0  0  0  0999 V2000
   -0.6214   -0.6088    0.0000 S   0  0  0  0  0  0  0  0  0
   -0.6214   -1.4338    0.0000 C   0  0  0  0  0  0  0  0  0
    0.0931   -1.8463    0.0000 C   0  0  0  0  0  0  0  0  0
    0.8076   -1.4338    0.0000 N   0  0  0  0  0  0  0  0  0
    0.8076   -0.6088    0.0000 C   0  0  0  0  0  0  0  0  0
    0.0931   -0.1963    0.0000 C   0  0  0  0  0  0  0  0  0
    0.0931    0.6287    0.0000 C   0  0  0  0  0  0  0  0  0
    0.8076    1.0412    0.0000 C   0  0  0  0  0  0  0  0  0
    1.5220    0.6287    0.0000 C   0  0  0  0  0  0  0  0  0
    1.5220   -0.1963    0.0000 C   0  0  0  0  0  0  0  0  0
    1.5220   -1.8463    0.0000 C   0  0  0  0  0  0  0  0  0
    2.2365   -1.4338    0.0000 C   0  0  0  0  0  0  0  0  0
    2.9510   -1.8463    0.0000 C   0  0  0  0  0  0  0  0  0
    3.6655   -1.4338    0.0000 N   0  0  0  0  0  0  0  0  0
    4.3799   -1.8463    0.0000 C   0  0  0  0  0  0  0  0  0
    3.6655   -0.6088    0.0000 C   0  0  0  0  0  0  0  0  0
    2.2365   -0.6088    0.0000 C   0  0  0  0  0  0  0  0  0
    0.0931   -2.6713    0.0000 C   0  0  0  0  0  0  0  0  0
   -0.6214   -3.0838    0.0000 C   0  0  0  0  0  0  0  0  0
   -1.3358   -2.6713    0.0000 C   0  0  0  0  0  0  0  0  0
   -1.3358   -1.8463    0.0000 C   0  0  0  0  0  0  0  0  0
   -0.6214   -3.9088    0.0000 C   0  0  0  0  0  0  0  0  0
   -0.6214   -4.7338    0.0000 N   0  0  0  0  0  0  0  0  0
  1  2  1  0  0  0  0
  1  6  1  0  0  0  0
  2  3  4  0  0  0  0
  2 21  4  0  0  0  0
  3  4  1  0  0  0  0
  3 18  4  0  0  0  0
  4  5  1  0  0  0  0
  4 11  1  0  0  0  0
  5  6  4  0  0  0  0
  5 10  4  0  0  0  0
  6  7  4  0  0  0  0
  7  8  4  0  0  0  0
  8  9  4  0  0  0  0
  9 10  4  0  0  0  0
 11 12  1  0  0  0  0
 12 13  1  0  0  0  0
 12 17  1  0  0  0  0
 13 14  1  0  0  0  0
 14 15  1  0  0  0  0
 14 16  1  0  0  0  0
 18 19  4  0  0  0  0
 19 20  4  0  0  0  0
 19 22  1  0  0  0  0
 20 21  4  0  0  0  0
 22 23  3  0  0  0  0
M  END
>  <Name_Molregno>
Cyamemazine

>  <5-HT1A>
6.29

>  <5-HT2A>
8.82

>  <5-HT2C>
7.92

>  <5-HT3>
5.53

>  <5-HT7>
7.66

>  <DOPAMINE D1>
8.42

>  <DOPAMINE D2>
8.24

>  <DOPAMINE D3>
8.6

>  <DOPAMINE D4>
8.28

>  <Muscarinic acetylcholine receptor M1>
7.89

>  <Muscarinic acetylcholine receptor M2>
7.38

>  <Muscarinic acetylcholine receptor M3>
7.49

>  <Muscarinic acetylcholine receptor M4>
7.92

>  <Muscarinic acetylcholine receptor M5>
7.46

$$$$
d-Fenfluramine
  Marvin  02231216192D 0   1.00000     0.00000     0

 16 16  0  0  1  0  0  0  0  0999 V2000
   -5.1694    0.5172    0.0000 F   0  0  0  0  0  0  0  0  0
   -4.4549    0.1047    0.0000 C   0  0  0  0  0  0  0  0  0
   -4.8674   -0.6097    0.0000 F   0  0  0  0  0  0  0  0  0
   -4.0424    0.8192    0.0000 F   0  0  0  0  0  0  0  0  0
   -3.7405   -0.3078    0.0000 C   0  0  0  0  0  0  0  0  0
   -3.0260    0.1047    0.0000 C   0  0  0  0  0  0  0  0  0
   -2.3115   -0.3078    0.0000 C   0  0  0  0  0  0  0  0  0
   -2.3115   -1.1328    0.0000 C   0  0  0  0  0  0  0  0  0
   -3.0260   -1.5453    0.0000 C   0  0  0  0  0  0  0  0  0
   -3.7405   -1.1328    0.0000 C   0  0  0  0  0  0  0  0  0
   -1.5971    0.1047    0.0000 C   0  0  0  0  0  0  0  0  0
   -0.8826   -0.3078    0.0000 C   0  0  0  0  0  0  0  0  0
   -0.1681    0.1047    0.0000 N   0  0  0  0  0  0  0  0  0
    0.5464   -0.3078    0.0000 C   0  0  0  0  0  0  0  0  0
    1.2608    0.1047    0.0000 C   0  0  0  0  0  0  0  0  0
   -0.8826   -1.1328    0.0000 C   0  0  0  0  0  0  0  0  0
  1  2  1  0  0  0  0
  2  3  1  0  0  0  0
  2  4  1  0  0  0  0
  2  5  1  0  0  0  0
  5  6  4  0  0  0  0
  5 10  4  0  0  0  0
  6  7  4  0  0  0  0
  7  8  4  0  0  0  0
  7 11  1  0  0  0  0
  8  9  4  0  0  0  0
  9 10  4  0  0  0  0
 11 12  1  0  0  0  0
 12 13  1  0  0  0  0
 12 16  1  0  0  0  0
 13 14  1  0  0  0  0
 14 15  1  0  0  0  0
M  END
>  <Name_Molregno>
d-Fenfluramine

>  <5-HT1A>
6.11

>  <5-HT1B>
5.67

>  <5-HT1D>
5.79

>  <5-HT1E>
5

>  <5-HT2A>
5.92

>  <5-HT2C>
6.27

>  <5-HT3>
5

>  <5-HT5>
5

>  <5-HT6>
5.01

>  <5-HT7>
5.17

>  <Alpha-1A>
5.52

>  <Alpha-1B>
5.62

>  <Alpha-2A>
6.26

>  <Alpha-2B>
6.65

>  <Alpha-2C>
6.68

>  <Beta-1>
5.67

>  <Beta-2>
5.07

>  <DOPAMINE D1>
5

>  <DOPAMINE D2>
5

>  <DOPAMINE D4>
5

>  <DOPAMINE D5>
5

>  <Dopamine transporter>
5

>  <HISTAMINE H1>
5

>  <HISTAMINE H2>
5

>  <Muscarinic acetylcholine receptor M1>
5.61

>  <Muscarinic acetylcholine receptor M2>
5.39

>  <Muscarinic acetylcholine receptor M3>
5.22

>  <Muscarinic acetylcholine receptor M4>
5.1

>  <Muscarinic acetylcholine receptor M5>
5

>  <Norepinephrine transporter>
5

>  <Serotonin transporter>
6.18

$$$$
Diclofenac
  Marvin  02231216192D 0   1.00000     0.00000     0

 19 20  0  0  0  0  0  0  0  0999 V2000
    1.8639   -0.1839    0.0000 Cl  0  0  0  0  0  0  0  0  0
    1.8639   -1.0089    0.0000 C   0  0  0  0  0  0  0  0  0
    2.5784   -1.4214    0.0000 C   0  0  0  0  0  0  0  0  0
    2.5784   -2.2464    0.0000 C   0  0  0  0  0  0  0  0  0
    1.8639   -2.6589    0.0000 C   0  0  0  0  0  0  0  0  0
    1.1494   -2.2464    0.0000 C   0  0  0  0  0  0  0  0  0
    0.4350   -2.6589    0.0000 Cl  0  0  0  0  0  0  0  0  0
    1.1494   -1.4214    0.0000 C   0  0  0  0  0  0  0  0  0
    0.4350   -1.0089    0.0000 N   0  0  0  0  0  0  0  0  0
   -0.2795   -1.4214    0.0000 C   0  0  0  0  0  0  0  0  0
   -0.2795   -2.2464    0.0000 C   0  0  0  0  0  0  0  0  0
   -0.9940   -2.6589    0.0000 C   0  0  0  0  0  0  0  0  0
   -1.7085   -2.2464    0.0000 C   0  0  0  0  0  0  0  0  0
   -1.7085   -1.4214    0.0000 C   0  0  0  0  0  0  0  0  0
   -0.9940   -1.0089    0.0000 C   0  0  0  0  0  0  0  0  0
   -0.9940   -0.1839    0.0000 C   0  0  0  0  0  0  0  0  0
   -0.2795    0.2286    0.0000 C   0  0  0  0  0  0  0  0  0
   -0.2795    1.0536    0.0000 O   0  0  0  0  0  0  0  0  0
    0.4350   -0.1839    0.0000 O   0  0  0  0  0  0  0  0  0
  1  2  1  0  0  0  0
  2  3  4  0  0  0  0
  2  8  4  0  0  0  0
  3  4  4  0  0  0  0
  4  5  4  0  0  0  0
  5  6  4  0  0  0  0
  6  7  1  0  0  0  0
  6  8  4  0  0  0  0
  8  9  1  0  0  0  0
  9 10  1  0  0  0  0
 10 11  4  0  0  0  0
 10 15  4  0  0  0  0
 11 12  4  0  0  0  0
 12 13  4  0  0  0  0
 13 14  4  0  0  0  0
 14 15  4  0  0  0  0
 15 16  1  0  0  0  0
 16 17  1  0  0  0  0
 17 18  1  0  0  0  0
 17 19  2  0  0  0  0
M  END
>  <Name_Molregno>
Diclofenac

>  <5-HT1A>
5

>  <5-HT1B>
5

>  <5-HT1D>
5

>  <5-HT1E>
5

>  <5-HT2A>
5

>  <5-HT3>
5

>  <5-HT5>
5

>  <5-HT6>
5

>  <5-HT7>
5

>  <Alpha-1A>
5

>  <Alpha-1B>
5

>  <Alpha-2A>
5

>  <Alpha-2B>
5

>  <Alpha-2C>
5

>  <DOPAMINE D1>
5

>  <DOPAMINE D2>
5

>  <DOPAMINE D4>
5

>  <DOPAMINE D5>
5

>  <HISTAMINE H1>
5

>  <HISTAMINE H2>
5

>  <Muscarinic acetylcholine receptor M2>
5

>  <Muscarinic acetylcholine receptor M5>
5

$$$$
DOPAMINE
  Marvin  02231216192D 0   1.00000     0.00000     0

 11 11  0  0  0  0  0  0  0  0999 V2000
    3.1358    1.8244    0.0000 O   0  0  0  0  0  0  0  0  0
    2.4213    1.4119    0.0000 C   0  0  0  0  0  0  0  0  0
    2.4213    0.5869    0.0000 C   0  0  0  0  0  0  0  0  0
    1.7068    0.1744    0.0000 C   0  0  0  0  0  0  0  0  0
    0.9924    0.5869    0.0000 C   0  0  0  0  0  0  0  0  0
    0.9924    1.4119    0.0000 C   0  0  0  0  0  0  0  0  0
    1.7068    1.8244    0.0000 C   0  0  0  0  0  0  0  0  0
    1.7068    2.6494    0.0000 O   0  0  0  0  0  0  0  0  0
    1.7068   -0.6506    0.0000 C   0  0  0  0  0  0  0  0  0
    0.9924   -1.0631    0.0000 C   0  0  0  0  0  0  0  0  0
    0.9924   -1.8881    0.0000 N   0  0  0  0  0  0  0  0  0
  1  2  1  0  0  0  0
  2  3  4  0  0  0  0
  2  7  4  0  0  0  0
  3  4  4  0  0  0  0
  4  5  4  0  0  0  0
  4  9  1  0  0  0  0
  5  6  4  0  0  0  0
  6  7  4  0  0  0  0
  7  8  1  0  0  0  0
  9 10  1  0  0  0  0
 10 11  1  0  0  0  0
M  END
>  <Name_Molregno>
DOPAMINE

>  <5-HT1A>
5.08

>  <5-HT2A>
5

>  <5-HT3>
5

>  <5-HT7>
5

>  <DOPAMINE D1>
5.72

>  <DOPAMINE D2>
6.7

>  <DOPAMINE D3>
7.41

>  <DOPAMINE D4>
7.64

>  <DOPAMINE D5>
6.64

>  <Dopamine transporter>
5.79

>  <Norepinephrine transporter>
6.49

$$$$
DROPERIDOL
  Marvin  02231216192D 0   1.00000     0.00000     0

 28 31  0  0  0  0  0  0  0  0999 V2000
    4.4976   -4.6062    0.0000 F   0  0  0  0  0  0  0  0  0
    4.7526   -3.8215    0.0000 C   0  0  0  0  0  0  0  0  0
    4.2005   -3.2085    0.0000 C   0  0  0  0  0  0  0  0  0
    4.4555   -2.4238    0.0000 C   0  0  0  0  0  0  0  0  0
    5.2625   -2.2523    0.0000 C   0  0  0  0  0  0  0  0  0
    5.8145   -2.8654    0.0000 C   0  0  0  0  0  0  0  0  0
    5.5596   -3.6500    0.0000 C   0  0  0  0  0  0  0  0  0
    5.5174   -1.4677    0.0000 C   0  0  0  0  0  0  0  0  0
    6.3244   -1.2962    0.0000 O   0  0  0  0  0  0  0  0  0
    4.9654   -0.8546    0.0000 C   0  0  0  0  0  0  0  0  0
    5.2203   -0.0700    0.0000 C   0  0  0  0  0  0  0  0  0
    4.6683    0.5431    0.0000 C   0  0  0  0  0  0  0  0  0
    4.9232    1.3278    0.0000 N   0  0  0  0  0  0  0  0  0
    4.3712    1.9408    0.0000 C   0  0  0  0  0  0  0  0  0
    4.6261    2.7255    0.0000 C   0  0  0  0  0  0  0  0  0
    5.4331    2.8970    0.0000 C   0  0  0  0  0  0  0  0  0
    5.6880    3.6816    0.0000 N   0  0  0  0  0  0  0  0  0
    6.4726    3.9366    0.0000 C   0  0  0  0  0  0  0  0  0
    6.4726    4.7616    0.0000 C   0  0  0  0  0  0  0  0  0
    5.6880    5.0165    0.0000 N   0  0  0  0  0  0  0  0  0
    5.2031    4.3491    0.0000 C   0  0  0  0  0  0  0  0  0
    4.3781    4.3491    0.0000 O   0  0  0  0  0  0  0  0  0
    7.1871    5.1741    0.0000 C   0  0  0  0  0  0  0  0  0
    7.9016    4.7616    0.0000 C   0  0  0  0  0  0  0  0  0
    7.9016    3.9366    0.0000 C   0  0  0  0  0  0  0  0  0
    7.1871    3.5241    0.0000 C   0  0  0  0  0  0  0  0  0
    5.9851    2.2839    0.0000 C   0  0  0  0  0  0  0  0  0
    5.7302    1.4993    0.0000 C   0  0  0  0  0  0  0  0  0
  1  2  1  0  0  0  0
  2  3  4  0  0  0  0
  2  7  4  0  0  0  0
  3  4  4  0  0  0  0
  4  5  4  0  0  0  0
  5  6  4  0  0  0  0
  5  8  1  0  0  0  0
  6  7  4  0  0  0  0
  8  9  2  0  0  0  0
  8 10  1  0  0  0  0
 10 11  1  0  0  0  0
 11 12  1  0  0  0  0
 12 13  1  0  0  0  0
 13 14  1  0  0  0  0
 13 28  1  0  0  0  0
 14 15  1  0  0  0  0
 15 16  1  0  0  0  0
 16 17  1  0  0  0  0
 16 27  2  0  0  0  0
 17 18  1  0  0  0  0
 17 21  1  0  0  0  0
 18 19  4  0  0  0  0
 18 26  4  0  0  0  0
 19 20  1  0  0  0  0
 19 23  4  0  0  0  0
 20 21  1  0  0  0  0
 21 22  2  0  0  0  0
 23 24  4  0  0  0  0
 24 25  4  0  0  0  0
 25 26  4  0  0  0  0
 27 28  1  0  0  0  0
M  END
>  <Name_Molregno>
DROPERIDOL

>  <DOPAMINE D2>
9.6

>  <DOPAMINE D4>
9.08

$$$$
Ephedrine
  Marvin  02231216192D 0   1.00000     0.00000     0

 12 12  0  0  1  0  0  0  0  0999 V2000
    1.9192   -0.0549    0.0000 O   0  0  0  0  0  0  0  0  0
    1.2047   -0.4674    0.0000 C   0  0  0  0  0  0  0  0  0
    0.4903   -0.0549    0.0000 C   0  0  0  0  0  0  0  0  0
    0.4903    0.7701    0.0000 N   0  0  0  0  0  0  0  0  0
   -0.2242    1.1826    0.0000 C   0  0  0  0  0  0  0  0  0
   -0.2242   -0.4674    0.0000 C   0  0  0  0  0  0  0  0  0
    1.2047   -1.2924    0.0000 C   0  0  0  0  0  0  0  0  0
    1.9192   -1.7049    0.0000 C   0  0  0  0  0  0  0  0  0
    1.9192   -2.5299    0.0000 C   0  0  0  0  0  0  0  0  0
    1.2047   -2.9424    0.0000 C   0  0  0  0  0  0  0  0  0
    0.4903   -2.5299    0.0000 C   0  0  0  0  0  0  0  0  0
    0.4903   -1.7049    0.0000 C   0  0  0  0  0  0  0  0  0
  1  2  1  0  0  0  0
  2  3  1  0  0  0  0
  2  7  1  0  0  0  0
  3  4  1  0  0  0  0
  3  6  1  0  0  0  0
  4  5  1  0  0  0  0
  7  8  4  0  0  0  0
  7 12  4  0  0  0  0
  8  9  4  0  0  0  0
  9 10  4  0  0  0  0
 10 11  4  0  0  0  0
 11 12  4  0  0  0  0
M  END
>  <Name_Molregno>
Ephedrine

>  <5-HT1A>
5

>  <5-HT1B>
5

>  <5-HT1D>
5

>  <5-HT1E>
5

>  <5-HT3>
5

>  <5-HT5>
5

>  <5-HT6>
5

>  <5-HT7>
5.33

>  <Alpha-1A>
5

>  <Alpha-1B>
5

>  <Alpha-2A>
5.17

>  <Alpha-2B>
5.48

>  <Alpha-2C>
5.51

>  <Beta-1>
5

>  <Beta-2>
5

>  <DOPAMINE D1>
5

>  <DOPAMINE D2>
5

>  <DOPAMINE D4>
5

>  <DOPAMINE D5>
5

>  <Dopamine transporter>
5.38

>  <HISTAMINE H1>
5

>  <HISTAMINE H2>
5

>  <HISTAMINE H4>
5

>  <Muscarinic acetylcholine receptor M1>
5

>  <Muscarinic acetylcholine receptor M2>
5

>  <Muscarinic acetylcholine receptor M3>
5

>  <Muscarinic acetylcholine receptor M4>
5

>  <Muscarinic acetylcholine receptor M5>
5

>  <Norepinephrine transporter>
5.79

>  <Serotonin transporter>
5

$$$$
ERGOTAMINE
  Marvin  02231216192D 0   1.00000     0.00000     0

 43 50  0  0  1  0  0  0  0  0999 V2000
   -2.1239   -1.0172    0.0000 O   0  0  0  0  0  0  0  0  0
   -1.3035   -1.1045    0.0000 C   0  0  0  0  0  0  0  0  0
   -1.3025   -0.2795    0.0000 N   0  0  0  0  0  0  0  0  0
   -0.5876    0.1322    0.0000 C   0  0  0  0  0  0  0  0  0
    0.1264   -0.2812    0.0000 O   0  0  0  0  0  0  0  0  0
   -0.5866    0.9572    0.0000 C   0  0  0  0  0  0  0  0  0
    0.1284    1.3688    0.0000 C   0  0  0  0  0  0  0  0  0
    0.1294    2.1938    0.0000 C   0  0  0  0  0  0  0  0  0
   -0.5846    2.6072    0.0000 C   0  0  0  0  0  0  0  0  0
   -1.2996    2.1955    0.0000 N   0  0  0  0  0  0  0  0  0
   -1.3006    1.3705    0.0000 C   0  0  0  0  0  0  0  0  0
   -2.0136    2.6089    0.0000 C   0  0  0  0  0  0  0  0  0
   -0.5831    3.4313    0.0000 C   0  0  0  0  0  0  0  0  0
    0.1294    3.8438    0.0000 C   0  0  0  0  0  0  0  0  0
    0.8419    3.4313    0.0000 C   0  0  0  0  0  0  0  0  0
    0.8419    2.6063    0.0000 C   0  0  0  0  0  0  0  0  0
    1.5597    2.1938    0.0000 C   0  0  0  0  0  0  0  0  0
    2.2722    2.6063    0.0000 C   0  0  0  0  0  0  0  0  0
    2.2722    3.4313    0.0000 C   0  0  0  0  0  0  0  0  0
    1.5597    3.8438    0.0000 C   0  0  0  0  0  0  0  0  0
    1.2544    4.7010    0.0000 N   0  0  0  0  0  0  0  0  0
    0.4294    4.7010    0.0000 C   0  0  0  0  0  0  0  0  0
   -0.4830   -1.0192    0.0000 C   0  0  0  0  0  0  0  0  0
   -1.1330   -1.9116    0.0000 C   0  0  0  0  0  0  0  0  0
   -0.3797   -2.2481    0.0000 O   0  0  0  0  0  0  0  0  0
   -1.8479   -2.3233    0.0000 N   0  0  0  0  0  0  0  0  0
   -2.0204   -3.1301    0.0000 C   0  0  0  0  0  0  0  0  0
   -1.4080   -3.6828    0.0000 C   0  0  0  0  0  0  0  0  0
   -1.5805   -4.4896    0.0000 C   0  0  0  0  0  0  0  0  0
   -0.9681   -5.0424    0.0000 C   0  0  0  0  0  0  0  0  0
   -1.1406   -5.8491    0.0000 C   0  0  0  0  0  0  0  0  0
   -1.9255   -6.1031    0.0000 C   0  0  0  0  0  0  0  0  0
   -2.5379   -5.5504    0.0000 C   0  0  0  0  0  0  0  0  0
   -2.3654   -4.7436    0.0000 C   0  0  0  0  0  0  0  0  0
   -2.8054   -3.3841    0.0000 C   0  0  0  0  0  0  0  0  0
   -2.9779   -4.1908    0.0000 O   0  0  0  0  0  0  0  0  0
   -3.4178   -2.8313    0.0000 N   0  0  0  0  0  0  0  0  0
   -3.2453   -2.0245    0.0000 C   0  0  0  0  0  0  0  0  0
   -3.9593   -1.6112    0.0000 C   0  0  0  0  0  0  0  0  0
   -4.5730   -2.1625    0.0000 C   0  0  0  0  0  0  0  0  0
   -4.2384   -2.9165    0.0000 C   0  0  0  0  0  0  0  0  0
   -2.4604   -1.7705    0.0000 C   0  0  0  0  0  0  0  0  0
   -3.0117   -1.1568    0.0000 O   0  0  0  0  0  0  0  0  0
  1  2  1  0  0  0  0
  1 42  1  0  0  0  0
  2  3  1  0  0  0  0
  2 23  1  0  0  0  0
  2 24  1  0  0  0  0
  3  4  1  0  0  0  0
  4  5  2  0  0  0  0
  4  6  1  0  0  0  0
  6  7  1  0  0  0  0
  6 11  1  0  0  0  0
  7  8  2  0  0  0  0
  8  9  1  0  0  0  0
  8 16  1  0  0  0  0
  9 10  1  0  0  0  0
  9 13  1  0  0  0  0
 10 11  1  0  0  0  0
 10 12  1  0  0  0  0
 13 14  1  0  0  0  0
 14 15  4  0  0  0  0
 14 22  4  0  0  0  0
 15 16  4  0  0  0  0
 15 20  4  0  0  0  0
 16 17  4  0  0  0  0
 17 18  4  0  0  0  0
 18 19  4  0  0  0  0
 19 20  4  0  0  0  0
 20 21  4  0  0  0  0
 21 22  4  0  0  0  0
 24 25  2  0  0  0  0
 24 26  1  0  0  0  0
 26 27  1  0  0  0  0
 26 42  1  0  0  0  0
 27 28  1  0  0  0  0
 27 35  1  0  0  0  0
 28 29  1  0  0  0  0
 29 30  4  0  0  0  0
 29 34  4  0  0  0  0
 30 31  4  0  0  0  0
 31 32  4  0  0  0  0
 32 33  4  0  0  0  0
 33 34  4  0  0  0  0
 35 36  2  0  0  0  0
 35 37  1  0  0  0  0
 37 38  1  0  0  0  0
 37 41  1  0  0  0  0
 38 39  1  0  0  0  0
 38 42  1  0  0  0  0
 39 40  1  0  0  0  0
 40 41  1  0  0  0  0
 42 43  1  0  0  0  0
M  STY  1   1 DAT
M  SAL   1  1  21
M  SDT   1 MRV_IMPLICIT_H                                        
M  SDD   1     0.0000    0.0000    DR    ALL  0       0  
M  SED   1 IMPL_H1
M  END
>  <Name_Molregno>
ERGOTAMINE

>  <5-HT1A>
9.77

>  <5-HT1B>
8.33

>  <5-HT1D>
9

>  <5-HT1E>
6.58

>  <5-HT2A>
9.1

>  <5-HT2C>
8.37

>  <5-HT3>
5

>  <5-HT6>
7.92

>  <5-HT7>
5.89

>  <Alpha-1A>
5

>  <Alpha-1B>
5

>  <Alpha-2A>
6.97

>  <Alpha-2B>
7.05

>  <Alpha-2C>
5

>  <Beta-1>
5

>  <Beta-2>
5

>  <DOPAMINE D1>
5

>  <DOPAMINE D2>
5

>  <DOPAMINE D4>
5

>  <DOPAMINE D5>
6.77

>  <Dopamine transporter>
5

>  <HISTAMINE H1>
5

>  <HISTAMINE H2>
5

>  <Muscarinic acetylcholine receptor M1>
6.06

>  <Muscarinic acetylcholine receptor M2>
6.04

>  <Muscarinic acetylcholine receptor M3>
5

>  <Muscarinic acetylcholine receptor M4>
5

>  <Muscarinic acetylcholine receptor M5>
5

>  <Norepinephrine transporter>
5

>  <Serotonin transporter>
5

$$$$
ETICLOPRIDE
  Marvin  02231216192D 0   1.00000     0.00000     0

 23 24  0  0  1  0  0  0  0  0999 V2000
    0.4207   -0.0120    0.0000 Cl  0  0  0  0  0  0  0  0  0
    1.1351    0.4005    0.0000 C   0  0  0  0  0  0  0  0  0
    1.1351    1.2255    0.0000 C   0  0  0  0  0  0  0  0  0
    1.8496    1.6380    0.0000 C   0  0  0  0  0  0  0  0  0
    1.8496    2.4630    0.0000 C   0  0  0  0  0  0  0  0  0
    1.1351    2.8755    0.0000 C   0  0  0  0  0  0  0  0  0
    2.5641    1.2255    0.0000 C   0  0  0  0  0  0  0  0  0
    3.2785    1.6380    0.0000 O   0  0  0  0  0  0  0  0  0
    2.5641    0.4005    0.0000 C   0  0  0  0  0  0  0  0  0
    3.2785   -0.0120    0.0000 C   0  0  0  0  0  0  0  0  0
    3.9930    0.4005    0.0000 O   0  0  0  0  0  0  0  0  0
    3.2785   -0.8370    0.0000 N   0  0  0  0  0  0  0  0  0
    3.9930   -1.2495    0.0000 C   0  0  0  0  0  0  0  0  0
    3.9930   -2.0745    0.0000 C   0  0  0  0  0  0  0  0  0
    4.6605   -2.5594    0.0000 N   0  0  0  0  0  0  0  0  0
    4.4055   -3.3441    0.0000 C   0  0  0  0  0  0  0  0  0
    3.5805   -3.3441    0.0000 C   0  0  0  0  0  0  0  0  0
    3.3256   -2.5594    0.0000 C   0  0  0  0  0  0  0  0  0
    5.4451   -2.3045    0.0000 C   0  0  0  0  0  0  0  0  0
    6.0582   -2.8565    0.0000 C   0  0  0  0  0  0  0  0  0
    1.8496   -0.0120    0.0000 C   0  0  0  0  0  0  0  0  0
    1.8496   -0.8370    0.0000 O   0  0  0  0  0  0  0  0  0
    2.5641   -1.2495    0.0000 C   0  0  0  0  0  0  0  0  0
  1  2  1  0  0  0  0
  2  3  4  0  0  0  0
  2 21  4  0  0  0  0
  3  4  4  0  0  0  0
  4  5  1  0  0  0  0
  4  7  4  0  0  0  0
  5  6  1  0  0  0  0
  7  8  1  0  0  0  0
  7  9  4  0  0  0  0
  9 10  1  0  0  0  0
  9 21  4  0  0  0  0
 10 11  2  0  0  0  0
 10 12  1  0  0  0  0
 12 13  1  0  0  0  0
 13 14  1  0  0  0  0
 14 15  1  0  0  0  0
 14 18  1  0  0  0  0
 15 16  1  0  0  0  0
 15 19  1  0  0  0  0
 16 17  1  0  0  0  0
 17 18  1  0  0  0  0
 19 20  1  0  0  0  0
 21 22  1  0  0  0  0
 22 23  1  0  0  0  0
M  END
>  <Name_Molregno>
ETICLOPRIDE

>  <5-HT1A>
5.75

>  <DOPAMINE D1>
5

>  <DOPAMINE D2>
10

>  <DOPAMINE D3>
10

>  <DOPAMINE D4>
7.61

>  <DOPAMINE D5>
5

$$$$
FLUPENTHIXOL-Alpha
  Marvin  02231216192D 0   1.00000     0.00000     0

 30 33  0  0  0  0  0  0  0  0999 V2000
    2.2729   -3.8406    0.0000 S   0  0  0  0  0  0  0  0  0
    2.9874   -3.4281    0.0000 C   0  0  0  0  0  0  0  0  0
    2.9874   -2.6031    0.0000 C   0  0  0  0  0  0  0  0  0
    3.7018   -2.1906    0.0000 C   0  0  0  0  0  0  0  0  0
    4.4163   -2.6031    0.0000 C   0  0  0  0  0  0  0  0  0
    4.4163   -3.4281    0.0000 C   0  0  0  0  0  0  0  0  0
    3.7018   -3.8406    0.0000 C   0  0  0  0  0  0  0  0  0
    5.1308   -2.1906    0.0000 C   0  0  0  0  0  0  0  0  0
    5.8453   -1.7781    0.0000 F   0  0  0  0  0  0  0  0  0
    4.7183   -1.4762    0.0000 F   0  0  0  0  0  0  0  0  0
    5.5433   -2.9051    0.0000 F   0  0  0  0  0  0  0  0  0
    2.2729   -2.1906    0.0000 C   0  0  0  0  0  0  0  0  0
    1.5584   -2.6031    0.0000 C   0  0  0  0  0  0  0  0  0
    1.5584   -3.4281    0.0000 C   0  0  0  0  0  0  0  0  0
    0.8440   -3.8406    0.0000 C   0  0  0  0  0  0  0  0  0
    0.1295   -3.4281    0.0000 C   0  0  0  0  0  0  0  0  0
    0.1295   -2.6031    0.0000 C   0  0  0  0  0  0  0  0  0
    0.8440   -2.1906    0.0000 C   0  0  0  0  0  0  0  0  0
    2.2729   -1.3656    0.0000 C   0  0  0  0  0  0  0  0  0
    1.5584   -0.9531    0.0000 C   0  0  0  0  0  0  0  0  0
    0.8440   -1.3656    0.0000 C   0  0  0  0  0  0  0  0  0
    0.1295   -0.9531    0.0000 N   0  0  0  0  0  0  0  0  0
   -0.5850   -1.3656    0.0000 C   0  0  0  0  0  0  0  0  0
   -1.2994   -0.9531    0.0000 C   0  0  0  0  0  0  0  0  0
   -1.2994   -0.1281    0.0000 N   0  0  0  0  0  0  0  0  0
   -0.5850    0.2844    0.0000 C   0  0  0  0  0  0  0  0  0
    0.1295   -0.1281    0.0000 C   0  0  0  0  0  0  0  0  0
   -2.0139    0.2844    0.0000 C   0  0  0  0  0  0  0  0  0
   -2.0139    1.1094    0.0000 C   0  0  0  0  0  0  0  0  0
   -2.7284    1.5219    0.0000 O   0  0  0  0  0  0  0  0  0
  1  2  1  0  0  0  0
  1 14  1  0  0  0  0
  2  3  4  0  0  0  0
  2  7  4  0  0  0  0
  3  4  4  0  0  0  0
  3 12  1  0  0  0  0
  4  5  4  0  0  0  0
  5  6  4  0  0  0  0
  5  8  1  0  0  0  0
  6  7  4  0  0  0  0
  8  9  1  0  0  0  0
  8 10  1  0  0  0  0
  8 11  1  0  0  0  0
 12 13  1  0  0  0  0
 12 19  2  0  0  0  0
 13 14  4  0  0  0  0
 13 18  4  0  0  0  0
 14 15  4  0  0  0  0
 15 16  4  0  0  0  0
 16 17  4  0  0  0  0
 17 18  4  0  0  0  0
 19 20  1  0  0  0  0
 20 21  1  0  0  0  0
 21 22  1  0  0  0  0
 22 23  1  0  0  0  0
 22 27  1  0  0  0  0
 23 24  1  0  0  0  0
 24 25  1  0  0  0  0
 25 26  1  0  0  0  0
 25 28  1  0  0  0  0
 26 27  1  0  0  0  0
 28 29  1  0  0  0  0
 29 30  1  0  0  0  0
M  END
>  <Name_Molregno>
FLUPENTHIXOL-Alpha

>  <5-HT1A>
5.1

>  <5-HT2A>
7.06

>  <DOPAMINE D1>
8.44

>  <DOPAMINE D2>
8.74

>  <DOPAMINE D3>
8.15

>  <DOPAMINE D4>
7.23

>  <DOPAMINE D5>
8.1

>  <HISTAMINE H1>
8.65

$$$$
FLUPERLAPINE
  Marvin  02231216192D 0   1.00000     0.00000     0

 23 26  0  0  0  0  0  0  0  0999 V2000
   -0.5622   -2.2603    0.0000 F   0  0  0  0  0  0  0  0  0
    0.2262   -2.5035    0.0000 C   0  0  0  0  0  0  0  0  0
    0.8309   -1.9424    0.0000 C   0  0  0  0  0  0  0  0  0
    1.6193   -2.1855    0.0000 C   0  0  0  0  0  0  0  0  0
    2.1337   -1.5405    0.0000 N   0  0  0  0  0  0  0  0  0
    2.9587   -1.5405    0.0000 C   0  0  0  0  0  0  0  0  0
    3.3166   -0.7972    0.0000 N   0  0  0  0  0  0  0  0  0
    2.8519   -0.1156    0.0000 C   0  0  0  0  0  0  0  0  0
    3.2098    0.6277    0.0000 C   0  0  0  0  0  0  0  0  0
    4.0325    0.6894    0.0000 N   0  0  0  0  0  0  0  0  0
    4.4973    0.0077    0.0000 C   0  0  0  0  0  0  0  0  0
    4.1393   -0.7356    0.0000 C   0  0  0  0  0  0  0  0  0
    4.3905    1.4327    0.0000 C   0  0  0  0  0  0  0  0  0
    3.4730   -2.1855    0.0000 C   0  0  0  0  0  0  0  0  0
    3.2895   -2.9898    0.0000 C   0  0  0  0  0  0  0  0  0
    2.5462   -3.3478    0.0000 C   0  0  0  0  0  0  0  0  0
    1.8029   -2.9898    0.0000 C   0  0  0  0  0  0  0  0  0
    1.1981   -3.5510    0.0000 C   0  0  0  0  0  0  0  0  0
    0.4098   -3.3078    0.0000 C   0  0  0  0  0  0  0  0  0
    3.8942   -3.5510    0.0000 C   0  0  0  0  0  0  0  0  0
    4.6826   -3.3078    0.0000 C   0  0  0  0  0  0  0  0  0
    4.8662   -2.5035    0.0000 C   0  0  0  0  0  0  0  0  0
    4.2614   -1.9424    0.0000 C   0  0  0  0  0  0  0  0  0
  1  2  1  0  0  0  0
  2  3  4  0  0  0  0
  2 19  4  0  0  0  0
  3  4  4  0  0  0  0
  4  5  1  0  0  0  0
  4 17  4  0  0  0  0
  5  6  2  0  0  0  0
  6  7  1  0  0  0  0
  6 14  1  0  0  0  0
  7  8  1  0  0  0  0
  7 12  1  0  0  0  0
  8  9  1  0  0  0  0
  9 10  1  0  0  0  0
 10 11  1  0  0  0  0
 10 13  1  0  0  0  0
 11 12  1  0  0  0  0
 14 15  4  0  0  0  0
 14 23  4  0  0  0  0
 15 16  1  0  0  0  0
 15 20  4  0  0  0  0
 16 17  1  0  0  0  0
 17 18  4  0  0  0  0
 18 19  4  0  0  0  0
 20 21  4  0  0  0  0
 21 22  4  0  0  0  0
 22 23  4  0  0  0  0
M  END
>  <Name_Molregno>
FLUPERLAPINE

>  <5-HT6>
7.54

>  <DOPAMINE D1>
7.12

>  <DOPAMINE D4>
7.68

>  <Muscarinic acetylcholine receptor M1>
8.06

>  <Muscarinic acetylcholine receptor M2>
7.15

>  <Muscarinic acetylcholine receptor M3>
7.39

>  <Muscarinic acetylcholine receptor M4>
7.85

>  <Muscarinic acetylcholine receptor M5>
7.77

$$$$
FLUPHENAZINE
  Marvin  02231216192D 0   1.00000     0.00000     0

 38 41  0  0  0  0  0  0  0  0999 V2000
   -7.1492   -1.5262    0.0000 S   0  0  0  0  0  0  0  0  0
   -7.1492   -2.3512    0.0000 C   0  0  0  0  0  0  0  0  0
   -6.4348   -2.7637    0.0000 C   0  0  0  0  0  0  0  0  0
   -5.7203   -2.3512    0.0000 N   0  0  0  0  0  0  0  0  0
   -5.7203   -1.5262    0.0000 C   0  0  0  0  0  0  0  0  0
   -6.4348   -1.1137    0.0000 C   0  0  0  0  0  0  0  0  0
   -6.4348   -0.2887    0.0000 C   0  0  0  0  0  0  0  0  0
   -5.7203    0.1238    0.0000 C   0  0  0  0  0  0  0  0  0
   -5.0058   -0.2887    0.0000 C   0  0  0  0  0  0  0  0  0
   -5.0058   -1.1137    0.0000 C   0  0  0  0  0  0  0  0  0
   -5.0058   -2.7637    0.0000 C   0  0  0  0  0  0  0  0  0
   -4.2914   -2.3512    0.0000 C   0  0  0  0  0  0  0  0  0
   -3.5769   -2.7637    0.0000 C   0  0  0  0  0  0  0  0  0
   -2.8624   -2.3512    0.0000 N   0  0  0  0  0  0  0  0  0
   -2.8624   -1.5262    0.0000 C   0  0  0  0  0  0  0  0  0
   -2.1479   -1.1137    0.0000 C   0  0  0  0  0  0  0  0  0
   -1.4335   -1.5262    0.0000 N   0  0  0  0  0  0  0  0  0
   -1.4335   -2.3512    0.0000 C   0  0  0  0  0  0  0  0  0
   -2.1479   -2.7637    0.0000 C   0  0  0  0  0  0  0  0  0
   -0.7190   -1.1137    0.0000 C   0  0  0  0  0  0  0  0  0
   -0.0045   -1.5262    0.0000 C   0  0  0  0  0  0  0  0  0
    0.7099   -1.1137    0.0000 O   0  0  0  0  0  0  0  0  0
    1.4244   -1.5262    0.0000 C   0  0  0  0  0  0  0  0  0
    1.4244   -2.3512    0.0000 O   0  0  0  0  0  0  0  0  0
    2.1389   -1.1137    0.0000 C   0  0  0  0  0  0  0  0  0
    2.8534   -1.5262    0.0000 C   0  0  0  0  0  0  0  0  0
    3.5678   -1.1137    0.0000 C   0  0  0  0  0  0  0  0  0
    4.2823   -1.5262    0.0000 C   0  0  0  0  0  0  0  0  0
    4.9968   -1.1137    0.0000 C   0  0  0  0  0  0  0  0  0
    5.7112   -1.5262    0.0000 C   0  0  0  0  0  0  0  0  0
   -6.4348   -3.5887    0.0000 C   0  0  0  0  0  0  0  0  0
   -7.1492   -4.0012    0.0000 C   0  0  0  0  0  0  0  0  0
   -7.8637   -3.5887    0.0000 C   0  0  0  0  0  0  0  0  0
   -7.8637   -2.7637    0.0000 C   0  0  0  0  0  0  0  0  0
   -7.1492   -4.8262    0.0000 C   0  0  0  0  0  0  0  0  0
   -7.1492   -5.6512    0.0000 F   0  0  0  0  0  0  0  0  0
   -7.9742   -4.8262    0.0000 F   0  0  0  0  0  0  0  0  0
   -6.3242   -4.8262    0.0000 F   0  0  0  0  0  0  0  0  0
  1  2  1  0  0  0  0
  1  6  1  0  0  0  0
  2  3  4  0  0  0  0
  2 34  4  0  0  0  0
  3  4  1  0  0  0  0
  3 31  4  0  0  0  0
  4  5  1  0  0  0  0
  4 11  1  0  0  0  0
  5  6  4  0  0  0  0
  5 10  4  0  0  0  0
  6  7  4  0  0  0  0
  7  8  4  0  0  0  0
  8  9  4  0  0  0  0
  9 10  4  0  0  0  0
 11 12  1  0  0  0  0
 12 13  1  0  0  0  0
 13 14  1  0  0  0  0
 14 15  1  0  0  0  0
 14 19  1  0  0  0  0
 15 16  1  0  0  0  0
 16 17  1  0  0  0  0
 17 18  1  0  0  0  0
 17 20  1  0  0  0  0
 18 19  1  0  0  0  0
 20 21  1  0  0  0  0
 21 22  1  0  0  0  0
 22 23  1  0  0  0  0
 23 24  2  0  0  0  0
 23 25  1  0  0  0  0
 25 26  1  0  0  0  0
 26 27  1  0  0  0  0
 27 28  1  0  0  0  0
 28 29  1  0  0  0  0
 29 30  1  0  0  0  0
 31 32  4  0  0  0  0
 32 33  4  0  0  0  0
 32 35  1  0  0  0  0
 33 34  4  0  0  0  0
 35 36  1  0  0  0  0
 35 37  1  0  0  0  0
 35 38  1  0  0  0  0
M  END
>  <Name_Molregno>
FLUPHENAZINE

>  <5-HT1A>
6.41

>  <5-HT1B>
6.48

>  <5-HT1D>
6.48

>  <5-HT1E>
6.27

>  <5-HT2A>
7.87

>  <5-HT2C>
6.05

>  <5-HT3>
5

>  <5-HT5>
6.84

>  <5-HT6>
7.46

>  <5-HT7>
8.1

>  <Alpha-1A>
8.19

>  <Alpha-1B>
7.89

>  <Alpha-2A>
6.5

>  <Alpha-2B>
7.09

>  <Alpha-2C>
7.54

>  <Beta-1>
5

>  <Beta-2>
5

>  <DOPAMINE D1>
7.55

>  <DOPAMINE D2>
9.22

>  <DOPAMINE D3>
9.33

>  <DOPAMINE D4>
7.52

>  <DOPAMINE D5>
7.82

>  <Dopamine transporter>
5

>  <HISTAMINE H1>
7.72

>  <HISTAMINE H2>
6.25

>  <HISTAMINE H3>
6

>  <HISTAMINE H4>
5

>  <Muscarinic acetylcholine receptor M1>
5.96

>  <Muscarinic acetylcholine receptor M2>
5.14

>  <Muscarinic acetylcholine receptor M3>
5.84

>  <Muscarinic acetylcholine receptor M4>
5.27

>  <Muscarinic acetylcholine receptor M5>
6.45

>  <Norepinephrine transporter>
5.51

>  <Serotonin transporter>
5.23

$$$$
FLUSPIRILENE
  Marvin  02231216192D 0   1.00000     0.00000     0

 35 39  0  0  0  0  0  0  0  0999 V2000
    3.1924   -2.1696    0.0000 F   0  0  0  0  0  0  0  0  0
    2.3674   -2.1696    0.0000 C   0  0  0  0  0  0  0  0  0
    1.9549   -2.8841    0.0000 C   0  0  0  0  0  0  0  0  0
    1.1299   -2.8841    0.0000 C   0  0  0  0  0  0  0  0  0
    0.7174   -2.1696    0.0000 C   0  0  0  0  0  0  0  0  0
    1.1299   -1.4552    0.0000 C   0  0  0  0  0  0  0  0  0
    1.9549   -1.4552    0.0000 C   0  0  0  0  0  0  0  0  0
   -0.1076   -2.1696    0.0000 C   0  0  0  0  0  0  0  0  0
   -0.5201   -2.8841    0.0000 C   0  0  0  0  0  0  0  0  0
   -1.3451   -2.8841    0.0000 C   0  0  0  0  0  0  0  0  0
   -1.7576   -3.5986    0.0000 C   0  0  0  0  0  0  0  0  0
   -2.5826   -3.5986    0.0000 N   0  0  0  0  0  0  0  0  0
   -2.9951   -4.3130    0.0000 C   0  0  0  0  0  0  0  0  0
   -3.8201   -4.3130    0.0000 C   0  0  0  0  0  0  0  0  0
   -4.2326   -3.5986    0.0000 C   0  0  0  0  0  0  0  0  0
   -4.7175   -4.2660    0.0000 N   0  0  0  0  0  0  0  0  0
   -5.5021   -4.0111    0.0000 C   0  0  0  0  0  0  0  0  0
   -5.5021   -3.1861    0.0000 N   0  0  0  0  0  0  0  0  0
   -4.7175   -2.9311    0.0000 C   0  0  0  0  0  0  0  0  0
   -4.4626   -2.1465    0.0000 O   0  0  0  0  0  0  0  0  0
   -4.4626   -5.0506    0.0000 C   0  0  0  0  0  0  0  0  0
   -3.6556   -5.2222    0.0000 C   0  0  0  0  0  0  0  0  0
   -3.4007   -6.0068    0.0000 C   0  0  0  0  0  0  0  0  0
   -3.9527   -6.6199    0.0000 C   0  0  0  0  0  0  0  0  0
   -4.7597   -6.4483    0.0000 C   0  0  0  0  0  0  0  0  0
   -5.0146   -5.6637    0.0000 C   0  0  0  0  0  0  0  0  0
   -3.8201   -2.8841    0.0000 C   0  0  0  0  0  0  0  0  0
   -2.9951   -2.8841    0.0000 C   0  0  0  0  0  0  0  0  0
   -0.5201   -1.4552    0.0000 C   0  0  0  0  0  0  0  0  0
   -1.3451   -1.4552    0.0000 C   0  0  0  0  0  0  0  0  0
   -1.7576   -0.7407    0.0000 C   0  0  0  0  0  0  0  0  0
   -1.3451   -0.0262    0.0000 C   0  0  0  0  0  0  0  0  0
   -1.7576    0.6883    0.0000 F   0  0  0  0  0  0  0  0  0
   -0.5201   -0.0262    0.0000 C   0  0  0  0  0  0  0  0  0
   -0.1076   -0.7407    0.0000 C   0  0  0  0  0  0  0  0  0
  1  2  1  0  0  0  0
  2  3  4  0  0  0  0
  2  7  4  0  0  0  0
  3  4  4  0  0  0  0
  4  5  4  0  0  0  0
  5  6  4  0  0  0  0
  5  8  1  0  0  0  0
  6  7  4  0  0  0  0
  8  9  1  0  0  0  0
  8 29  1  0  0  0  0
  9 10  1  0  0  0  0
 10 11  1  0  0  0  0
 11 12  1  0  0  0  0
 12 13  1  0  0  0  0
 12 28  1  0  0  0  0
 13 14  1  0  0  0  0
 14 15  1  0  0  0  0
 15 16  1  0  0  0  0
 15 19  1  0  0  0  0
 15 27  1  0  0  0  0
 16 17  1  0  0  0  0
 16 21  1  0  0  0  0
 17 18  1  0  0  0  0
 18 19  1  0  0  0  0
 19 20  2  0  0  0  0
 21 22  4  0  0  0  0
 21 26  4  0  0  0  0
 22 23  4  0  0  0  0
 23 24  4  0  0  0  0
 24 25  4  0  0  0  0
 25 26  4  0  0  0  0
 27 28  1  0  0  0  0
 29 30  4  0  0  0  0
 29 35  4  0  0  0  0
 30 31  4  0  0  0  0
 31 32  4  0  0  0  0
 32 33  1  0  0  0  0
 32 34  4  0  0  0  0
 34 35  4  0  0  0  0
M  END
>  <Name_Molregno>
FLUSPIRILENE

>  <5-HT1A>
7.25

>  <5-HT1B>
5.95

>  <5-HT1D>
5.3

>  <5-HT1E>
5.65

>  <5-HT2A>
8.02

>  <Alpha-2A>
6.24

>  <Alpha-2B>
7.32

>  <Alpha-2C>
7.21

>  <Beta-1>
6.23

>  <Beta-2>
6.29

>  <DOPAMINE D2>
9.37

>  <DOPAMINE D3>
8.73

>  <DOPAMINE D4>
8.26

>  <HISTAMINE H1>
7.92

>  <Serotonin transporter>
6

$$$$
HALOPERIDOL
  Marvin  02231216192D 0   1.00000     0.00000     0

 26 28  0  0  0  0  0  0  0  0999 V2000
    1.7138    2.6466    0.0000 Cl  0  0  0  0  0  0  0  0  0
    1.9960    1.8714    0.0000 C   0  0  0  0  0  0  0  0  0
    2.8084    1.7281    0.0000 C   0  0  0  0  0  0  0  0  0
    3.0906    0.9529    0.0000 C   0  0  0  0  0  0  0  0  0
    2.5603    0.3209    0.0000 C   0  0  0  0  0  0  0  0  0
    1.7478    0.4642    0.0000 C   0  0  0  0  0  0  0  0  0
    1.4657    1.2394    0.0000 C   0  0  0  0  0  0  0  0  0
    2.8425   -0.4543    0.0000 C   0  0  0  0  0  0  0  0  0
    2.0300   -0.5976    0.0000 O   0  0  0  0  0  0  0  0  0
    3.5569   -0.0418    0.0000 C   0  0  0  0  0  0  0  0  0
    4.2714   -0.4543    0.0000 C   0  0  0  0  0  0  0  0  0
    4.2714   -1.2793    0.0000 N   0  0  0  0  0  0  0  0  0
    3.5569   -1.6918    0.0000 C   0  0  0  0  0  0  0  0  0
    2.8425   -1.2793    0.0000 C   0  0  0  0  0  0  0  0  0
    4.9859   -1.6918    0.0000 C   0  0  0  0  0  0  0  0  0
    5.7003   -1.2793    0.0000 C   0  0  0  0  0  0  0  0  0
    6.4148   -1.6918    0.0000 C   0  0  0  0  0  0  0  0  0
    7.1293   -1.2793    0.0000 C   0  0  0  0  0  0  0  0  0
    7.1293   -0.4543    0.0000 O   0  0  0  0  0  0  0  0  0
    7.8438   -1.6918    0.0000 C   0  0  0  0  0  0  0  0  0
    8.5582   -1.2793    0.0000 C   0  0  0  0  0  0  0  0  0
    9.2727   -1.6918    0.0000 C   0  0  0  0  0  0  0  0  0
    9.2727   -2.5168    0.0000 C   0  0  0  0  0  0  0  0  0
    9.9872   -2.9293    0.0000 F   0  0  0  0  0  0  0  0  0
    8.5582   -2.9293    0.0000 C   0  0  0  0  0  0  0  0  0
    7.8438   -2.5168    0.0000 C   0  0  0  0  0  0  0  0  0
  1  2  1  0  0  0  0
  2  3  4  0  0  0  0
  2  7  4  0  0  0  0
  3  4  4  0  0  0  0
  4  5  4  0  0  0  0
  5  6  4  0  0  0  0
  5  8  1  0  0  0  0
  6  7  4  0  0  0  0
  8  9  1  0  0  0  0
  8 10  1  0  0  0  0
  8 14  1  0  0  0  0
 10 11  1  0  0  0  0
 11 12  1  0  0  0  0
 12 13  1  0  0  0  0
 12 15  1  0  0  0  0
 13 14  1  0  0  0  0
 15 16  1  0  0  0  0
 16 17  1  0  0  0  0
 17 18  1  0  0  0  0
 18 19  2  0  0  0  0
 18 20  1  0  0  0  0
 20 21  4  0  0  0  0
 20 26  4  0  0  0  0
 21 22  4  0  0  0  0
 22 23  4  0  0  0  0
 23 24  1  0  0  0  0
 23 25  4  0  0  0  0
 25 26  4  0  0  0  0
M  END
>  <Name_Molregno>
HALOPERIDOL

>  <5-HT1A>
5.67

>  <5-HT1B>
6.63

>  <5-HT1D>
5.56

>  <5-HT1E>
5.15

>  <5-HT2A>
7.01

>  <5-HT2C>
5.24

>  <5-HT3>
5

>  <5-HT5>
5.65

>  <5-HT6>
5.28

>  <5-HT7>
6.32

>  <Alpha-1A>
7.92

>  <Alpha-1B>
8.1

>  <Alpha-2A>
6.04

>  <Alpha-2B>
6.32

>  <Alpha-2C>
6.34

>  <Beta-1>
5

>  <Beta-2>
5.15

>  <DOPAMINE D1>
7.22

>  <DOPAMINE D2>
8.75

>  <DOPAMINE D3>
8.33

>  <DOPAMINE D4>
8.29

>  <DOPAMINE D5>
7.03

>  <Dopamine transporter>
5

>  <HISTAMINE H1>
6.04

>  <HISTAMINE H2>
6

>  <HISTAMINE H4>
5

>  <Muscarinic acetylcholine receptor M1>
5.4

>  <Muscarinic acetylcholine receptor M2>
5

>  <Muscarinic acetylcholine receptor M3>
5

>  <Muscarinic acetylcholine receptor M4>
5

>  <Muscarinic acetylcholine receptor M5>
5.59

>  <Norepinephrine transporter>
5.68

>  <Serotonin transporter>
5.74

$$$$
ibuprofen
  Marvin  02231216192D 0   1.00000     0.00000     0

 15 15  0  0  1  0  0  0  0  0999 V2000
    3.0591   -3.4943    0.0000 O   0  0  0  0  0  0  0  0  0
    3.0591   -2.6693    0.0000 C   0  0  0  0  0  0  0  0  0
    3.7735   -2.2568    0.0000 O   0  0  0  0  0  0  0  0  0
    2.3446   -2.2568    0.0000 C   0  0  0  0  0  0  0  0  0
    1.6301   -2.6693    0.0000 C   0  0  0  0  0  0  0  0  0
    2.3446   -1.4318    0.0000 C   0  0  0  0  0  0  0  0  0
    1.6301   -1.0193    0.0000 C   0  0  0  0  0  0  0  0  0
    1.6301   -0.1943    0.0000 C   0  0  0  0  0  0  0  0  0
    2.3446    0.2182    0.0000 C   0  0  0  0  0  0  0  0  0
    3.0591   -0.1943    0.0000 C   0  0  0  0  0  0  0  0  0
    3.0591   -1.0193    0.0000 C   0  0  0  0  0  0  0  0  0
    2.3446    1.0432    0.0000 C   0  0  0  0  0  0  0  0  0
    3.0591    1.4557    0.0000 C   0  0  0  0  0  0  0  0  0
    3.0591    2.2807    0.0000 C   0  0  0  0  0  0  0  0  0
    3.7735    1.0432    0.0000 C   0  0  0  0  0  0  0  0  0
  1  2  1  0  0  0  0
  2  3  2  0  0  0  0
  2  4  1  0  0  0  0
  4  5  1  0  0  0  0
  4  6  1  0  0  0  0
  6  7  4  0  0  0  0
  6 11  4  0  0  0  0
  7  8  4  0  0  0  0
  8  9  4  0  0  0  0
  9 10  4  0  0  0  0
  9 12  1  0  0  0  0
 10 11  4  0  0  0  0
 12 13  1  0  0  0  0
 13 14  1  0  0  0  0
 13 15  1  0  0  0  0
M  END
>  <Name_Molregno>
ibuprofen

>  <5-HT1A>
5

>  <5-HT1B>
5

>  <5-HT1D>
5

>  <5-HT1E>
5

>  <5-HT2A>
5

>  <5-HT3>
5

>  <5-HT6>
5

>  <5-HT7>
5

>  <Alpha-1A>
5

>  <Alpha-1B>
5

>  <Alpha-2A>
5

>  <Alpha-2B>
5

>  <Alpha-2C>
5

>  <DOPAMINE D1>
5

>  <DOPAMINE D2>
5

>  <DOPAMINE D4>
5

>  <DOPAMINE D5>
5

>  <Dopamine transporter>
5

>  <HISTAMINE H1>
5

>  <HISTAMINE H2>
5

>  <Muscarinic acetylcholine receptor M2>
5

>  <Muscarinic acetylcholine receptor M5>
5

>  <Norepinephrine transporter>
5

>  <Serotonin transporter>
5

$$$$
ILOPERIDONE
  Marvin  02231216192D 0   1.00000     0.00000     0

 31 34  0  0  0  0  0  0  0  0999 V2000
    9.8408   -5.0338    0.0000 F   0  0  0  0  0  0  0  0  0
    9.1263   -4.6213    0.0000 C   0  0  0  0  0  0  0  0  0
    8.4119   -5.0338    0.0000 C   0  0  0  0  0  0  0  0  0
    7.6974   -4.6213    0.0000 C   0  0  0  0  0  0  0  0  0
    6.9128   -4.8762    0.0000 O   0  0  0  0  0  0  0  0  0
    6.4279   -4.2088    0.0000 N   0  0  0  0  0  0  0  0  0
    6.9128   -3.5413    0.0000 C   0  0  0  0  0  0  0  0  0
    7.6974   -3.7963    0.0000 C   0  0  0  0  0  0  0  0  0
    8.4119   -3.3838    0.0000 C   0  0  0  0  0  0  0  0  0
    9.1263   -3.7963    0.0000 C   0  0  0  0  0  0  0  0  0
    6.6578   -2.7567    0.0000 C   0  0  0  0  0  0  0  0  0
    5.8509   -2.5852    0.0000 C   0  0  0  0  0  0  0  0  0
    5.5959   -1.8006    0.0000 C   0  0  0  0  0  0  0  0  0
    6.1480   -1.1875    0.0000 N   0  0  0  0  0  0  0  0  0
    6.9549   -1.3590    0.0000 C   0  0  0  0  0  0  0  0  0
    7.2099   -2.1436    0.0000 C   0  0  0  0  0  0  0  0  0
    5.8930   -0.4028    0.0000 C   0  0  0  0  0  0  0  0  0
    5.0861   -0.2313    0.0000 C   0  0  0  0  0  0  0  0  0
    4.8311    0.5533    0.0000 C   0  0  0  0  0  0  0  0  0
    4.0241    0.7248    0.0000 O   0  0  0  0  0  0  0  0  0
    3.7692    1.5095    0.0000 C   0  0  0  0  0  0  0  0  0
    2.9622    1.6810    0.0000 C   0  0  0  0  0  0  0  0  0
    2.7073    2.4656    0.0000 C   0  0  0  0  0  0  0  0  0
    3.2593    3.0787    0.0000 C   0  0  0  0  0  0  0  0  0
    4.0663    2.9072    0.0000 C   0  0  0  0  0  0  0  0  0
    4.3212    2.1225    0.0000 C   0  0  0  0  0  0  0  0  0
    5.1282    1.9510    0.0000 O   0  0  0  0  0  0  0  0  0
    5.6802    2.5641    0.0000 C   0  0  0  0  0  0  0  0  0
    3.0044    3.8633    0.0000 C   0  0  0  0  0  0  0  0  0
    2.1974    4.0348    0.0000 O   0  0  0  0  0  0  0  0  0
    3.5564    4.4764    0.0000 C   0  0  0  0  0  0  0  0  0
  1  2  1  0  0  0  0
  2  3  4  0  0  0  0
  2 10  4  0  0  0  0
  3  4  4  0  0  0  0
  4  5  4  0  0  0  0
  4  8  4  0  0  0  0
  5  6  4  0  0  0  0
  6  7  4  0  0  0  0
  7  8  4  0  0  0  0
  7 11  1  0  0  0  0
  8  9  4  0  0  0  0
  9 10  4  0  0  0  0
 11 12  1  0  0  0  0
 11 16  1  0  0  0  0
 12 13  1  0  0  0  0
 13 14  1  0  0  0  0
 14 15  1  0  0  0  0
 14 17  1  0  0  0  0
 15 16  1  0  0  0  0
 17 18  1  0  0  0  0
 18 19  1  0  0  0  0
 19 20  1  0  0  0  0
 20 21  1  0  0  0  0
 21 22  4  0  0  0  0
 21 26  4  0  0  0  0
 22 23  4  0  0  0  0
 23 24  4  0  0  0  0
 24 25  4  0  0  0  0
 24 29  1  0  0  0  0
 25 26  4  0  0  0  0
 26 27  1  0  0  0  0
 27 28  1  0  0  0  0
 29 30  2  0  0  0  0
 29 31  1  0  0  0  0
M  END
>  <Name_Molregno>
ILOPERIDONE

>  <5-HT1A>
7.18

>  <5-HT1B>
7.05

>  <5-HT1D>
7.82

>  <5-HT2A>
9.46

>  <5-HT2C>
7.27

>  <5-HT3>
5

>  <5-HT6>
7.2

>  <5-HT7>
6.95

>  <Alpha-2A>
6.79

>  <Alpha-2B>
6.79

>  <Alpha-2C>
7.79

>  <Beta-1>
5

>  <Beta-2>
5

>  <DOPAMINE D1>
7.02

>  <DOPAMINE D2>
8.23

>  <DOPAMINE D3>
8

>  <DOPAMINE D4>
7.96

>  <DOPAMINE D5>
6.5

>  <Dopamine transporter>
5.53

>  <HISTAMINE H1>
7.91

>  <Muscarinic acetylcholine receptor M1>
5.31

>  <Muscarinic acetylcholine receptor M2>
5.48

>  <Muscarinic acetylcholine receptor M3>
5

>  <Muscarinic acetylcholine receptor M4>
5.08

>  <Muscarinic acetylcholine receptor M5>
5

>  <Norepinephrine transporter>
5.83

$$$$
Ketorolac
  Marvin  02231216192D 0   1.00000     0.00000     0

 19 21  0  0  1  0  0  0  0  0999 V2000
    1.4450    2.2138    0.0000 O   0  0  0  0  0  0  0  0  0
    2.2520    2.0422    0.0000 C   0  0  0  0  0  0  0  0  0
    2.8040    2.6553    0.0000 O   0  0  0  0  0  0  0  0  0
    2.5069    1.2576    0.0000 C   0  0  0  0  0  0  0  0  0
    2.0220    0.5902    0.0000 C   0  0  0  0  0  0  0  0  0
    2.5069   -0.0773    0.0000 C   0  0  0  0  0  0  0  0  0
    3.2915    0.1777    0.0000 N   0  0  0  0  0  0  0  0  0
    3.2915    1.0027    0.0000 C   0  0  0  0  0  0  0  0  0
    4.0761    1.2576    0.0000 C   0  0  0  0  0  0  0  0  0
    4.5611    0.5902    0.0000 C   0  0  0  0  0  0  0  0  0
    4.0761   -0.0773    0.0000 C   0  0  0  0  0  0  0  0  0
    4.3311   -0.8619    0.0000 C   0  0  0  0  0  0  0  0  0
    5.1381   -1.0334    0.0000 O   0  0  0  0  0  0  0  0  0
    3.7791   -1.4750    0.0000 C   0  0  0  0  0  0  0  0  0
    4.0340   -2.2596    0.0000 C   0  0  0  0  0  0  0  0  0
    3.4820   -2.8727    0.0000 C   0  0  0  0  0  0  0  0  0
    2.6750   -2.7012    0.0000 C   0  0  0  0  0  0  0  0  0
    2.4201   -1.9166    0.0000 C   0  0  0  0  0  0  0  0  0
    2.9721   -1.3035    0.0000 C   0  0  0  0  0  0  0  0  0
  1  2  1  0  0  0  0
  2  3  2  0  0  0  0
  2  4  1  0  0  0  0
  4  5  1  0  0  0  0
  4  8  1  0  0  0  0
  5  6  1  0  0  0  0
  6  7  1  0  0  0  0
  7  8  4  0  0  0  0
  7 11  4  0  0  0  0
  8  9  4  0  0  0  0
  9 10  4  0  0  0  0
 10 11  4  0  0  0  0
 11 12  1  0  0  0  0
 12 13  2  0  0  0  0
 12 14  1  0  0  0  0
 14 15  4  0  0  0  0
 14 19  4  0  0  0  0
 15 16  4  0  0  0  0
 16 17  4  0  0  0  0
 17 18  4  0  0  0  0
 18 19  4  0  0  0  0
M  END
>  <Name_Molregno>
Ketorolac

>  <5-HT1A>
5

>  <5-HT1B>
5

>  <5-HT1D>
5

>  <5-HT1E>
5

>  <5-HT2A>
5

>  <5-HT3>
5

>  <5-HT5>
5

>  <5-HT6>
5

>  <5-HT7>
5

>  <Alpha-1A>
5

>  <Alpha-1B>
5

>  <Alpha-2A>
5

>  <Alpha-2B>
5

>  <Alpha-2C>
5

>  <DOPAMINE D1>
5

>  <DOPAMINE D2>
5

>  <DOPAMINE D4>
5

>  <DOPAMINE D5>
5

>  <Dopamine transporter>
5

>  <HISTAMINE H1>
5

>  <HISTAMINE H2>
5

>  <Muscarinic acetylcholine receptor M2>
5

>  <Muscarinic acetylcholine receptor M5>
5

>  <Norepinephrine transporter>
5

>  <Serotonin transporter>
5

$$$$
L745870
  Marvin  02231216192D 0   1.00000     0.00000     0

 23 26  0  0  0  0  0  0  0  0999 V2000
    0.0748   -0.9429    0.0000 Cl  0  0  0  0  0  0  0  0  0
    0.8818   -0.7714    0.0000 C   0  0  0  0  0  0  0  0  0
    1.1368    0.0132    0.0000 C   0  0  0  0  0  0  0  0  0
    1.9437    0.1847    0.0000 C   0  0  0  0  0  0  0  0  0
    2.4958   -0.4284    0.0000 C   0  0  0  0  0  0  0  0  0
    3.3027   -0.2568    0.0000 N   0  0  0  0  0  0  0  0  0
    3.5577    0.5278    0.0000 C   0  0  0  0  0  0  0  0  0
    4.3646    0.6993    0.0000 C   0  0  0  0  0  0  0  0  0
    4.9167    0.0862    0.0000 N   0  0  0  0  0  0  0  0  0
    4.6617   -0.6984    0.0000 C   0  0  0  0  0  0  0  0  0
    3.8548   -0.8699    0.0000 C   0  0  0  0  0  0  0  0  0
    5.7237    0.2578    0.0000 C   0  0  0  0  0  0  0  0  0
    5.9786    1.0424    0.0000 C   0  0  0  0  0  0  0  0  0
    6.7632    1.2973    0.0000 C   0  0  0  0  0  0  0  0  0
    6.7632    2.1223    0.0000 C   0  0  0  0  0  0  0  0  0
    7.4777    2.5348    0.0000 N   0  0  0  0  0  0  0  0  0
    8.1922    2.1223    0.0000 C   0  0  0  0  0  0  0  0  0
    8.1922    1.2973    0.0000 C   0  0  0  0  0  0  0  0  0
    7.4777    0.8848    0.0000 C   0  0  0  0  0  0  0  0  0
    5.9786    2.3773    0.0000 N   0  0  0  0  0  0  0  0  0
    5.4937    1.7098    0.0000 C   0  0  0  0  0  0  0  0  0
    2.2408   -1.2130    0.0000 C   0  0  0  0  0  0  0  0  0
    1.4339   -1.3845    0.0000 C   0  0  0  0  0  0  0  0  0
  1  2  1  0  0  0  0
  2  3  4  0  0  0  0
  2 23  4  0  0  0  0
  3  4  4  0  0  0  0
  4  5  4  0  0  0  0
  5  6  1  0  0  0  0
  5 22  4  0  0  0  0
  6  7  1  0  0  0  0
  6 11  1  0  0  0  0
  7  8  1  0  0  0  0
  8  9  1  0  0  0  0
  9 10  1  0  0  0  0
  9 12  1  0  0  0  0
 10 11  1  0  0  0  0
 12 13  1  0  0  0  0
 13 14  4  0  0  0  0
 13 21  4  0  0  0  0
 14 15  4  0  0  0  0
 14 19  4  0  0  0  0
 15 16  4  0  0  0  0
 15 20  4  0  0  0  0
 16 17  4  0  0  0  0
 17 18  4  0  0  0  0
 18 19  4  0  0  0  0
 20 21  4  0  0  0  0
 22 23  4  0  0  0  0
M  STY  1   1 DAT
M  SAL   1  1  16
M  SDT   1 MRV_IMPLICIT_H                                        
M  SDD   1     0.0000    0.0000    DR    ALL  0       0  
M  SED   1 IMPL_H1
M  END
>  <Name_Molregno>
L745870

>  <DOPAMINE D2>
6.46

>  <DOPAMINE D3>
6

>  <DOPAMINE D4>
8.33

$$$$
L-DOPA
  Marvin  02231216192D 0   1.00000     0.00000     0

 14 14  0  0  1  0  0  0  0  0999 V2000
    3.2565    2.2588    0.0000 O   0  0  0  0  0  0  0  0  0
    2.5420    1.8463    0.0000 C   0  0  0  0  0  0  0  0  0
    2.5420    1.0213    0.0000 C   0  0  0  0  0  0  0  0  0
    1.8275    0.6088    0.0000 C   0  0  0  0  0  0  0  0  0
    1.1131    1.0213    0.0000 C   0  0  0  0  0  0  0  0  0
    1.1131    1.8463    0.0000 C   0  0  0  0  0  0  0  0  0
    1.8275    2.2588    0.0000 C   0  0  0  0  0  0  0  0  0
    1.8275    3.0838    0.0000 O   0  0  0  0  0  0  0  0  0
    1.8275   -0.2162    0.0000 C   0  0  0  0  0  0  0  0  0
    2.5420   -0.6287    0.0000 C   0  0  0  0  0  0  0  0  0
    3.2565   -0.2162    0.0000 N   0  0  0  0  0  0  0  0  0
    2.5420   -1.4537    0.0000 C   0  0  0  0  0  0  0  0  0
    3.2565   -1.8662    0.0000 O   0  0  0  0  0  0  0  0  0
    1.8275   -1.8662    0.0000 O   0  0  0  0  0  0  0  0  0
  1  2  1  0  0  0  0
  2  3  4  0  0  0  0
  2  7  4  0  0  0  0
  3  4  4  0  0  0  0
  4  5  4  0  0  0  0
  4  9  1  0  0  0  0
  5  6  4  0  0  0  0
  6  7  4  0  0  0  0
  7  8  1  0  0  0  0
  9 10  1  0  0  0  0
 10 11  1  0  0  0  0
 10 12  1  0  0  0  0
 12 13  1  0  0  0  0
 12 14  2  0  0  0  0
M  END
>  <Name_Molregno>
L-DOPA

>  <DOPAMINE D1>
5

>  <DOPAMINE D2>
5

>  <DOPAMINE D4>
5

$$$$
LOXAPINE
  Marvin  02231216192D 0   1.00000     0.00000     0

 23 26  0  0  0  0  0  0  0  0999 V2000
    3.9671    1.6854    0.0000 Cl  0  0  0  0  0  0  0  0  0
    3.1788    1.4422    0.0000 C   0  0  0  0  0  0  0  0  0
    2.5740    2.0033    0.0000 C   0  0  0  0  0  0  0  0  0
    1.7856    1.7602    0.0000 C   0  0  0  0  0  0  0  0  0
    1.6021    0.9558    0.0000 C   0  0  0  0  0  0  0  0  0
    0.8588    0.5979    0.0000 O   0  0  0  0  0  0  0  0  0
    0.1155    0.9558    0.0000 C   0  0  0  0  0  0  0  0  0
   -0.0681    1.7602    0.0000 C   0  0  0  0  0  0  0  0  0
    0.4463    2.4052    0.0000 N   0  0  0  0  0  0  0  0  0
    1.2713    2.4052    0.0000 C   0  0  0  0  0  0  0  0  0
    1.6292    3.1485    0.0000 N   0  0  0  0  0  0  0  0  0
    1.1645    3.8301    0.0000 C   0  0  0  0  0  0  0  0  0
    1.5224    4.5734    0.0000 C   0  0  0  0  0  0  0  0  0
    2.3451    4.6351    0.0000 N   0  0  0  0  0  0  0  0  0
    2.8099    3.9534    0.0000 C   0  0  0  0  0  0  0  0  0
    2.4519    3.2101    0.0000 C   0  0  0  0  0  0  0  0  0
    2.7031    5.3784    0.0000 C   0  0  0  0  0  0  0  0  0
   -0.8565    2.0033    0.0000 C   0  0  0  0  0  0  0  0  0
   -1.4612    1.4422    0.0000 C   0  0  0  0  0  0  0  0  0
   -1.2776    0.6379    0.0000 C   0  0  0  0  0  0  0  0  0
   -0.4893    0.3947    0.0000 C   0  0  0  0  0  0  0  0  0
    2.2068    0.3947    0.0000 C   0  0  0  0  0  0  0  0  0
    2.9952    0.6379    0.0000 C   0  0  0  0  0  0  0  0  0
  1  2  1  0  0  0  0
  2  3  4  0  0  0  0
  2 23  4  0  0  0  0
  3  4  4  0  0  0  0
  4  5  4  0  0  0  0
  4 10  1  0  0  0  0
  5  6  1  0  0  0  0
  5 22  4  0  0  0  0
  6  7  1  0  0  0  0
  7  8  4  0  0  0  0
  7 21  4  0  0  0  0
  8  9  1  0  0  0  0
  8 18  4  0  0  0  0
  9 10  2  0  0  0  0
 10 11  1  0  0  0  0
 11 12  1  0  0  0  0
 11 16  1  0  0  0  0
 12 13  1  0  0  0  0
 13 14  1  0  0  0  0
 14 15  1  0  0  0  0
 14 17  1  0  0  0  0
 15 16  1  0  0  0  0
 18 19  4  0  0  0  0
 19 20  4  0  0  0  0
 20 21  4  0  0  0  0
 22 23  4  0  0  0  0
M  END
>  <Name_Molregno>
LOXAPINE

>  <5-HT1A>
5.59

>  <5-HT1B>
6.41

>  <5-HT1D>
5.46

>  <5-HT1E>
5.85

>  <5-HT2A>
8.43

>  <5-HT2C>
7.9

>  <5-HT3>
6.72

>  <5-HT5>
6.11

>  <5-HT6>
7.46

>  <5-HT7>
7.06

>  <Alpha-1A>
7.51

>  <Alpha-1B>
7.28

>  <Alpha-2A>
6.82

>  <Alpha-2B>
6.97

>  <Alpha-2C>
7.1

>  <Beta-1>
5

>  <Beta-2>
5

>  <DOPAMINE D1>
7.27

>  <DOPAMINE D2>
7.74

>  <DOPAMINE D3>
7.64

>  <DOPAMINE D4>
8.04

>  <DOPAMINE D5>
7.12

>  <Dopamine transporter>
5

>  <HISTAMINE H1>
8.33

>  <HISTAMINE H2>
6.68

>  <HISTAMINE H4>
5.32

>  <Muscarinic acetylcholine receptor M1>
6.98

>  <Muscarinic acetylcholine receptor M2>
6.38

>  <Muscarinic acetylcholine receptor M3>
6.74

>  <Muscarinic acetylcholine receptor M4>
6.09

>  <Muscarinic acetylcholine receptor M5>
6.83

>  <Norepinephrine transporter>
5.24

>  <Serotonin transporter>
5

$$$$
Meloxicam
  Marvin  02231216192D 0   1.00000     0.00000     0

 23 25  0  0  0  0  0  0  0  0999 V2000
    1.0530    2.3261    0.0000 S   0  0  0  0  0  0  0  0  0
    0.2461    2.4976    0.0000 C   0  0  0  0  0  0  0  0  0
   -0.1664    1.7831    0.0000 C   0  0  0  0  0  0  0  0  0
    0.3856    1.1700    0.0000 N   0  0  0  0  0  0  0  0  0
    1.1393    1.5056    0.0000 C   0  0  0  0  0  0  0  0  0
    1.8537    1.0931    0.0000 N   0  0  0  0  0  0  0  0  0
    1.8537    0.2681    0.0000 C   0  0  0  0  0  0  0  0  0
    1.1393   -0.1444    0.0000 O   0  0  0  0  0  0  0  0  0
    2.5682   -0.1444    0.0000 C   0  0  0  0  0  0  0  0  0
    2.5682   -0.9694    0.0000 N   0  0  0  0  0  0  0  0  0
    3.2827   -1.3819    0.0000 S   0  0  0  0  0  0  0  0  0
    2.7524   -2.0139    0.0000 O   0  0  0  0  0  0  0  0  0
    3.8130   -2.0139    0.0000 O   0  0  0  0  0  0  0  0  0
    3.9972   -0.9694    0.0000 C   0  0  0  0  0  0  0  0  0
    3.9972   -0.1444    0.0000 C   0  0  0  0  0  0  0  0  0
    4.7116    0.2681    0.0000 C   0  0  0  0  0  0  0  0  0
    5.4261   -0.1444    0.0000 C   0  0  0  0  0  0  0  0  0
    5.4261   -0.9694    0.0000 C   0  0  0  0  0  0  0  0  0
    4.7116   -1.3819    0.0000 C   0  0  0  0  0  0  0  0  0
    3.2827    0.2681    0.0000 C   0  0  0  0  0  0  0  0  0
    3.2827    1.0931    0.0000 O   0  0  0  0  0  0  0  0  0
    1.8537   -1.3819    0.0000 C   0  0  0  0  0  0  0  0  0
   -0.0895    3.2513    0.0000 C   0  0  0  0  0  0  0  0  0
  1  2  4  0  0  0  0
  1  5  4  0  0  0  0
  2  3  4  0  0  0  0
  2 23  1  0  0  0  0
  3  4  4  0  0  0  0
  4  5  4  0  0  0  0
  5  6  1  0  0  0  0
  6  7  1  0  0  0  0
  7  8  1  0  0  0  0
  7  9  2  0  0  0  0
  9 10  1  0  0  0  0
  9 20  1  0  0  0  0
 10 11  1  0  0  0  0
 10 22  1  0  0  0  0
 11 12  2  0  0  0  0
 11 13  2  0  0  0  0
 11 14  1  0  0  0  0
 14 15  4  0  0  0  0
 14 19  4  0  0  0  0
 15 16  4  0  0  0  0
 15 20  1  0  0  0  0
 16 17  4  0  0  0  0
 17 18  4  0  0  0  0
 18 19  4  0  0  0  0
 20 21  2  0  0  0  0
M  END
>  <Name_Molregno>
Meloxicam

>  <5-HT1A>
5

>  <5-HT1B>
5

>  <5-HT1D>
5

>  <5-HT1E>
5

>  <5-HT2A>
5

>  <5-HT3>
5

>  <5-HT5>
5

>  <5-HT6>
5

>  <5-HT7>
5

>  <Alpha-1A>
5

>  <Alpha-1B>
5

>  <Alpha-2A>
5

>  <Alpha-2B>
5

>  <Alpha-2C>
5

>  <DOPAMINE D1>
5

>  <DOPAMINE D2>
5

>  <DOPAMINE D4>
5

>  <DOPAMINE D5>
5

>  <Dopamine transporter>
5

>  <HISTAMINE H1>
5

>  <HISTAMINE H2>
5

>  <HISTAMINE H4>
5

>  <Muscarinic acetylcholine receptor M2>
5

>  <Muscarinic acetylcholine receptor M5>
5

>  <Norepinephrine transporter>
5

>  <Serotonin transporter>
5

$$$$
MELPERONE
  Marvin  02231216192D 0   1.00000     0.00000     0

 19 20  0  0  0  0  0  0  0  0999 V2000
    0.1244    2.1151    0.0000 F   0  0  0  0  0  0  0  0  0
    0.8389    1.7026    0.0000 C   0  0  0  0  0  0  0  0  0
    1.5534    2.1151    0.0000 C   0  0  0  0  0  0  0  0  0
    2.2678    1.7026    0.0000 C   0  0  0  0  0  0  0  0  0
    2.2678    0.8776    0.0000 C   0  0  0  0  0  0  0  0  0
    1.5534    0.4651    0.0000 C   0  0  0  0  0  0  0  0  0
    0.8389    0.8776    0.0000 C   0  0  0  0  0  0  0  0  0
    2.9823    0.4651    0.0000 C   0  0  0  0  0  0  0  0  0
    2.9823   -0.3599    0.0000 O   0  0  0  0  0  0  0  0  0
    3.6968    0.8776    0.0000 C   0  0  0  0  0  0  0  0  0
    4.4113    0.4651    0.0000 C   0  0  0  0  0  0  0  0  0
    5.1257    0.8776    0.0000 C   0  0  0  0  0  0  0  0  0
    5.8402    0.4651    0.0000 N   0  0  0  0  0  0  0  0  0
    6.5547    0.8776    0.0000 C   0  0  0  0  0  0  0  0  0
    7.2691    0.4651    0.0000 C   0  0  0  0  0  0  0  0  0
    7.2691   -0.3599    0.0000 C   0  0  0  0  0  0  0  0  0
    6.5547   -0.7724    0.0000 C   0  0  0  0  0  0  0  0  0
    5.8402   -0.3599    0.0000 C   0  0  0  0  0  0  0  0  0
    7.9836   -0.7724    0.0000 C   0  0  0  0  0  0  0  0  0
  1  2  1  0  0  0  0
  2  3  4  0  0  0  0
  2  7  4  0  0  0  0
  3  4  4  0  0  0  0
  4  5  4  0  0  0  0
  5  6  4  0  0  0  0
  5  8  1  0  0  0  0
  6  7  4  0  0  0  0
  8  9  2  0  0  0  0
  8 10  1  0  0  0  0
 10 11  1  0  0  0  0
 11 12  1  0  0  0  0
 12 13  1  0  0  0  0
 13 14  1  0  0  0  0
 13 18  1  0  0  0  0
 14 15  1  0  0  0  0
 15 16  1  0  0  0  0
 16 17  1  0  0  0  0
 16 19  1  0  0  0  0
 17 18  1  0  0  0  0
M  END
>  <Name_Molregno>
MELPERONE

>  <5-HT1A>
5.66

>  <5-HT1D>
5.47

>  <5-HT2A>
6.74

>  <5-HT2C>
5.68

>  <DOPAMINE D2>
7.04

>  <DOPAMINE D3>
7.45

>  <DOPAMINE D4>
6.33

>  <HISTAMINE H1>
6.24

>  <Muscarinic acetylcholine receptor M1>
5

>  <Muscarinic acetylcholine receptor M2>
5.62

>  <Muscarinic acetylcholine receptor M3>
5

>  <Muscarinic acetylcholine receptor M4>
5.36

>  <Muscarinic acetylcholine receptor M5>
5

$$$$
Methcathinone
  Marvin  02231216192D 0   1.00000     0.00000     0

 12 12  0  0  1  0  0  0  0  0999 V2000
    1.9192   -0.0549    0.0000 O   0  0  0  0  0  0  0  0  0
    1.2047   -0.4674    0.0000 C   0  0  0  0  0  0  0  0  0
    0.4903   -0.0549    0.0000 C   0  0  0  0  0  0  0  0  0
    0.4903    0.7701    0.0000 N   0  0  0  0  0  0  0  0  0
   -0.2242    1.1826    0.0000 C   0  0  0  0  0  0  0  0  0
   -0.2242   -0.4674    0.0000 C   0  0  0  0  0  0  0  0  0
    1.2047   -1.2924    0.0000 C   0  0  0  0  0  0  0  0  0
    1.9192   -1.7049    0.0000 C   0  0  0  0  0  0  0  0  0
    1.9192   -2.5299    0.0000 C   0  0  0  0  0  0  0  0  0
    1.2047   -2.9424    0.0000 C   0  0  0  0  0  0  0  0  0
    0.4903   -2.5299    0.0000 C   0  0  0  0  0  0  0  0  0
    0.4903   -1.7049    0.0000 C   0  0  0  0  0  0  0  0  0
  1  2  2  0  0  0  0
  2  3  1  0  0  0  0
  2  7  1  0  0  0  0
  3  4  1  0  0  0  0
  3  6  1  0  0  0  0
  4  5  1  0  0  0  0
  7  8  4  0  0  0  0
  7 12  4  0  0  0  0
  8  9  4  0  0  0  0
  9 10  4  0  0  0  0
 10 11  4  0  0  0  0
 11 12  4  0  0  0  0
M  END
>  <Name_Molregno>
Methcathinone

>  <5-HT1A>
5

>  <5-HT1B>
5

>  <5-HT1D>
5

>  <5-HT1E>
5

>  <5-HT3>
5

>  <5-HT5>
5

>  <5-HT6>
5

>  <5-HT7>
6

>  <Alpha-1A>
5

>  <Alpha-1B>
5

>  <Alpha-2A>
5.04

>  <Alpha-2B>
5.81

>  <Alpha-2C>
6.22

>  <Beta-1>
5

>  <Beta-2>
5

>  <DOPAMINE D1>
5

>  <DOPAMINE D2>
5

>  <DOPAMINE D4>
5

>  <DOPAMINE D5>
5

>  <Dopamine transporter>
6.41

>  <HISTAMINE H1>
5

>  <HISTAMINE H2>
5

>  <HISTAMINE H4>
5

>  <Muscarinic acetylcholine receptor M1>
5

>  <Muscarinic acetylcholine receptor M2>
5

>  <Muscarinic acetylcholine receptor M3>
5

>  <Muscarinic acetylcholine receptor M4>
5

>  <Muscarinic acetylcholine receptor M5>
5

>  <Norepinephrine transporter>
6.87

>  <Serotonin transporter>
5.38

$$$$
METHYSERGIDE
  Marvin  02231216192D 0   1.00000     0.00000     0

 26 29  0  0  1  0  0  0  0  0999 V2000
   -5.6466   -4.8655    0.0000 O   0  0  0  0  0  0  0  0  0
   -5.6457   -4.0405    0.0000 C   0  0  0  0  0  0  0  0  0
   -4.9307   -3.6289    0.0000 C   0  0  0  0  0  0  0  0  0
   -4.9297   -2.8039    0.0000 N   0  0  0  0  0  0  0  0  0
   -4.2147   -2.3922    0.0000 C   0  0  0  0  0  0  0  0  0
   -3.5008   -2.8056    0.0000 O   0  0  0  0  0  0  0  0  0
   -4.2138   -1.5672    0.0000 C   0  0  0  0  0  0  0  0  0
   -3.4988   -1.1556    0.0000 C   0  0  0  0  0  0  0  0  0
   -3.4978   -0.3306    0.0000 C   0  0  0  0  0  0  0  0  0
   -4.2118    0.0828    0.0000 C   0  0  0  0  0  0  0  0  0
   -4.9267   -0.3289    0.0000 N   0  0  0  0  0  0  0  0  0
   -4.9277   -1.1539    0.0000 C   0  0  0  0  0  0  0  0  0
   -5.6407    0.0845    0.0000 C   0  0  0  0  0  0  0  0  0
   -4.2103    0.9069    0.0000 C   0  0  0  0  0  0  0  0  0
   -3.4978    1.3194    0.0000 C   0  0  0  0  0  0  0  0  0
   -2.7853    0.9069    0.0000 C   0  0  0  0  0  0  0  0  0
   -2.7853    0.0819    0.0000 C   0  0  0  0  0  0  0  0  0
   -2.0674   -0.3306    0.0000 C   0  0  0  0  0  0  0  0  0
   -1.3549    0.0819    0.0000 C   0  0  0  0  0  0  0  0  0
   -1.3549    0.9069    0.0000 C   0  0  0  0  0  0  0  0  0
   -2.0674    1.3194    0.0000 C   0  0  0  0  0  0  0  0  0
   -2.3728    2.1766    0.0000 N   0  0  0  0  0  0  0  0  0
   -3.1978    2.1766    0.0000 C   0  0  0  0  0  0  0  0  0
   -1.8973    2.8507    0.0000 C   0  0  0  0  0  0  0  0  0
   -4.2167   -4.0422    0.0000 C   0  0  0  0  0  0  0  0  0
   -4.2177   -4.8672    0.0000 C   0  0  0  0  0  0  0  0  0
  1  2  1  0  0  0  0
  2  3  1  0  0  0  0
  3  4  1  0  0  0  0
  3 25  1  0  0  0  0
  4  5  1  0  0  0  0
  5  6  2  0  0  0  0
  5  7  1  0  0  0  0
  7  8  1  0  0  0  0
  7 12  1  0  0  0  0
  8  9  2  0  0  0  0
  9 10  1  0  0  0  0
  9 17  1  0  0  0  0
 10 11  1  0  0  0  0
 10 14  1  0  0  0  0
 11 12  1  0  0  0  0
 11 13  1  0  0  0  0
 14 15  1  0  0  0  0
 15 16  4  0  0  0  0
 15 23  4  0  0  0  0
 16 17  4  0  0  0  0
 16 21  4  0  0  0  0
 17 18  4  0  0  0  0
 18 19  4  0  0  0  0
 19 20  4  0  0  0  0
 20 21  4  0  0  0  0
 21 22  4  0  0  0  0
 22 23  4  0  0  0  0
 22 24  1  0  0  0  0
 25 26  1  0  0  0  0
M  END
>  <Name_Molregno>
METHYSERGIDE

>  <5-HT1A>
7.81

>  <5-HT1B>
7.91

>  <5-HT1D>
7.56

>  <5-HT1E>
6.71

>  <5-HT2A>
8.05

>  <5-HT2C>
8.69

>  <5-HT3>
5

>  <5-HT5>
5

>  <5-HT6>
6.82

>  <5-HT7>
7.32

>  <Alpha-1A>
5

>  <Alpha-1B>
5

>  <Alpha-2A>
6.77

>  <Alpha-2B>
6.97

>  <Alpha-2C>
7.05

>  <Beta-1>
5

>  <Beta-2>
5

>  <DOPAMINE D1>
5

>  <DOPAMINE D2>
5

>  <DOPAMINE D4>
5

>  <DOPAMINE D5>
5

>  <Dopamine transporter>
5

>  <HISTAMINE H1>
5.26

>  <HISTAMINE H2>
5

>  <Muscarinic acetylcholine receptor M1>
5.26

>  <Muscarinic acetylcholine receptor M2>
5.21

>  <Muscarinic acetylcholine receptor M3>
5.33

>  <Muscarinic acetylcholine receptor M4>
5

>  <Muscarinic acetylcholine receptor M5>
5

>  <Norepinephrine transporter>
5

>  <Serotonin transporter>
5

$$$$
MIRTAZAPINE
  Marvin  02231216192D 0   1.00000     0.00000     0

 20 23  0  0  1  0  0  0  0  0999 V2000
   -2.9515    1.3173    0.0000 N   0  0  0  0  0  0  0  0  0
   -2.1632    1.0741    0.0000 C   0  0  0  0  0  0  0  0  0
   -1.6488    1.7191    0.0000 N   0  0  0  0  0  0  0  0  0
   -0.8238    1.7191    0.0000 C   0  0  0  0  0  0  0  0  0
   -0.3094    1.0741    0.0000 C   0  0  0  0  0  0  0  0  0
   -0.4930    0.2698    0.0000 C   0  0  0  0  0  0  0  0  0
   -1.2363   -0.0881    0.0000 C   0  0  0  0  0  0  0  0  0
   -1.9796    0.2698    0.0000 C   0  0  0  0  0  0  0  0  0
   -2.5844   -0.2913    0.0000 C   0  0  0  0  0  0  0  0  0
   -3.3727   -0.0482    0.0000 C   0  0  0  0  0  0  0  0  0
   -3.5563    0.7562    0.0000 C   0  0  0  0  0  0  0  0  0
    0.1118   -0.2913    0.0000 C   0  0  0  0  0  0  0  0  0
    0.9001   -0.0482    0.0000 C   0  0  0  0  0  0  0  0  0
    1.0837    0.7562    0.0000 C   0  0  0  0  0  0  0  0  0
    0.4789    1.3173    0.0000 C   0  0  0  0  0  0  0  0  0
   -0.4113    2.4336    0.0000 C   0  0  0  0  0  0  0  0  0
   -0.8238    3.1481    0.0000 N   0  0  0  0  0  0  0  0  0
   -1.6488    3.1481    0.0000 C   0  0  0  0  0  0  0  0  0
   -2.0613    2.4336    0.0000 C   0  0  0  0  0  0  0  0  0
   -0.4113    3.8626    0.0000 C   0  0  0  0  0  0  0  0  0
  1  2  4  0  0  0  0
  1 11  4  0  0  0  0
  2  3  1  0  0  0  0
  2  8  4  0  0  0  0
  3  4  1  0  0  0  0
  3 19  1  0  0  0  0
  4  5  1  0  0  0  0
  4 16  1  0  0  0  0
  5  6  4  0  0  0  0
  5 15  4  0  0  0  0
  6  7  1  0  0  0  0
  6 12  4  0  0  0  0
  7  8  1  0  0  0  0
  8  9  4  0  0  0  0
  9 10  4  0  0  0  0
 10 11  4  0  0  0  0
 12 13  4  0  0  0  0
 13 14  4  0  0  0  0
 14 15  4  0  0  0  0
 16 17  1  0  0  0  0
 17 18  1  0  0  0  0
 17 20  1  0  0  0  0
 18 19  1  0  0  0  0
M  END
>  <Name_Molregno>
MIRTAZAPINE

>  <5-HT1A>
7.74

>  <5-HT2A>
7.16

>  <5-HT2C>
7.41

>  <5-HT7>
6.58

>  <Alpha-2A>
7.7

>  <Alpha-2C>
7.74

>  <DOPAMINE D1>
5.38

>  <DOPAMINE D2>
5.26

>  <DOPAMINE D3>
6.06

>  <DOPAMINE D4>
7.6

>  <Dopamine transporter>
5

>  <HISTAMINE H1>
8.8

>  <Norepinephrine transporter>
5.29

>  <Serotonin transporter>
5

$$$$
MOLINDONE
  Marvin  02231216192D 0   1.00000     0.00000     0

 20 22  0  0  1  0  0  0  0  0999 V2000
    0.1066   -1.7192    0.0000 O   0  0  0  0  0  0  0  0  0
   -0.6079   -2.1317    0.0000 C   0  0  0  0  0  0  0  0  0
   -1.3224   -1.7192    0.0000 C   0  0  0  0  0  0  0  0  0
   -1.3224   -0.8942    0.0000 N   0  0  0  0  0  0  0  0  0
   -0.6079   -0.4817    0.0000 C   0  0  0  0  0  0  0  0  0
    0.1066   -0.8942    0.0000 C   0  0  0  0  0  0  0  0  0
   -2.0368   -0.4817    0.0000 C   0  0  0  0  0  0  0  0  0
   -2.7513   -0.8942    0.0000 C   0  0  0  0  0  0  0  0  0
   -2.7513   -1.7192    0.0000 C   0  0  0  0  0  0  0  0  0
   -3.4658   -2.1317    0.0000 C   0  0  0  0  0  0  0  0  0
   -4.1803   -1.7192    0.0000 C   0  0  0  0  0  0  0  0  0
   -4.9649   -1.9741    0.0000 N   0  0  0  0  0  0  0  0  0
   -5.4498   -1.3067    0.0000 C   0  0  0  0  0  0  0  0  0
   -6.2748   -1.3067    0.0000 C   0  0  0  0  0  0  0  0  0
   -4.9649   -0.6392    0.0000 C   0  0  0  0  0  0  0  0  0
   -4.1803   -0.8942    0.0000 C   0  0  0  0  0  0  0  0  0
   -3.4658   -0.4817    0.0000 C   0  0  0  0  0  0  0  0  0
   -3.4658    0.3433    0.0000 O   0  0  0  0  0  0  0  0  0
   -5.2198    0.1454    0.0000 C   0  0  0  0  0  0  0  0  0
   -4.6678    0.7585    0.0000 C   0  0  0  0  0  0  0  0  0
  1  2  1  0  0  0  0
  1  6  1  0  0  0  0
  2  3  1  0  0  0  0
  3  4  1  0  0  0  0
  4  5  1  0  0  0  0
  4  7  1  0  0  0  0
  5  6  1  0  0  0  0
  7  8  1  0  0  0  0
  8  9  1  0  0  0  0
  8 17  1  0  0  0  0
  9 10  1  0  0  0  0
 10 11  1  0  0  0  0
 11 12  4  0  0  0  0
 11 16  4  0  0  0  0
 12 13  4  0  0  0  0
 13 14  1  0  0  0  0
 13 15  4  0  0  0  0
 15 16  4  0  0  0  0
 15 19  1  0  0  0  0
 16 17  1  0  0  0  0
 17 18  2  0  0  0  0
 19 20  1  0  0  0  0
M  STY  1   1 DAT
M  SAL   1  1  12
M  SDT   1 MRV_IMPLICIT_H                                        
M  SDD   1     0.0000    0.0000    DR    ALL  0       0  
M  SED   1 IMPL_H1
M  END
>  <Name_Molregno>
MOLINDONE

>  <5-HT1A>
5.42

>  <5-HT2A>
5.41

>  <5-HT2C>
5

>  <5-HT6>
6

>  <5-HT7>
6.05

>  <Alpha-1A>
5.58

>  <Alpha-2A>
5.96

>  <Alpha-2B>
6.25

>  <Alpha-2C>
6.76

>  <DOPAMINE D2>
7.74

>  <DOPAMINE D3>
7.39

>  <DOPAMINE D4>
5.99

>  <HISTAMINE H1>
5.17

>  <Muscarinic acetylcholine receptor M3>
5

$$$$
MOPERONE
  Marvin  02231216192D 0   1.00000     0.00000     0

 26 28  0  0  0  0  0  0  0  0999 V2000
    0.4137    2.9661    0.0000 F   0  0  0  0  0  0  0  0  0
    1.1282    2.5536    0.0000 C   0  0  0  0  0  0  0  0  0
    1.8426    2.9661    0.0000 C   0  0  0  0  0  0  0  0  0
    2.5571    2.5536    0.0000 C   0  0  0  0  0  0  0  0  0
    2.5571    1.7286    0.0000 C   0  0  0  0  0  0  0  0  0
    1.8426    1.3161    0.0000 C   0  0  0  0  0  0  0  0  0
    1.1282    1.7286    0.0000 C   0  0  0  0  0  0  0  0  0
    3.2716    1.3161    0.0000 C   0  0  0  0  0  0  0  0  0
    3.2716    0.4911    0.0000 O   0  0  0  0  0  0  0  0  0
    3.9861    1.7286    0.0000 C   0  0  0  0  0  0  0  0  0
    4.7005    1.3161    0.0000 C   0  0  0  0  0  0  0  0  0
    5.4150    1.7286    0.0000 C   0  0  0  0  0  0  0  0  0
    6.1295    1.3161    0.0000 N   0  0  0  0  0  0  0  0  0
    6.8439    1.7286    0.0000 C   0  0  0  0  0  0  0  0  0
    7.5584    1.3161    0.0000 C   0  0  0  0  0  0  0  0  0
    7.5584    0.4911    0.0000 C   0  0  0  0  0  0  0  0  0
    8.3709    0.6343    0.0000 O   0  0  0  0  0  0  0  0  0
    6.8439    0.0786    0.0000 C   0  0  0  0  0  0  0  0  0
    6.1295    0.4911    0.0000 C   0  0  0  0  0  0  0  0  0
    7.8406   -0.2842    0.0000 C   0  0  0  0  0  0  0  0  0
    8.6530   -0.4274    0.0000 C   0  0  0  0  0  0  0  0  0
    8.9352   -1.2027    0.0000 C   0  0  0  0  0  0  0  0  0
    8.4049   -1.8347    0.0000 C   0  0  0  0  0  0  0  0  0
    7.5924   -1.6914    0.0000 C   0  0  0  0  0  0  0  0  0
    7.3103   -0.9162    0.0000 C   0  0  0  0  0  0  0  0  0
    8.6871   -2.6099    0.0000 C   0  0  0  0  0  0  0  0  0
  1  2  1  0  0  0  0
  2  3  4  0  0  0  0
  2  7  4  0  0  0  0
  3  4  4  0  0  0  0
  4  5  4  0  0  0  0
  5  6  4  0  0  0  0
  5  8  1  0  0  0  0
  6  7  4  0  0  0  0
  8  9  2  0  0  0  0
  8 10  1  0  0  0  0
 10 11  1  0  0  0  0
 11 12  1  0  0  0  0
 12 13  1  0  0  0  0
 13 14  1  0  0  0  0
 13 19  1  0  0  0  0
 14 15  1  0  0  0  0
 15 16  1  0  0  0  0
 16 17  1  0  0  0  0
 16 18  1  0  0  0  0
 16 20  1  0  0  0  0
 18 19  1  0  0  0  0
 20 21  4  0  0  0  0
 20 25  4  0  0  0  0
 21 22  4  0  0  0  0
 22 23  4  0  0  0  0
 23 24  4  0  0  0  0
 23 26  1  0  0  0  0
 24 25  4  0  0  0  0
M  END
>  <Name_Molregno>
MOPERONE

>  <DOPAMINE D2>
8.96

>  <DOPAMINE D3>
9.5

>  <DOPAMINE D4>
8.14

$$$$
Naproxen
  Marvin  02231216192D 0   1.00000     0.00000     0

 17 18  0  0  1  0  0  0  0  0999 V2000
   -5.3383   -1.4581    0.0000 O   0  0  0  0  0  0  0  0  0
   -6.0528   -1.0456    0.0000 C   0  0  0  0  0  0  0  0  0
   -4.6238   -1.0456    0.0000 C   0  0  0  0  0  0  0  0  0
   -3.9093   -1.4581    0.0000 C   0  0  0  0  0  0  0  0  0
   -3.1949   -1.0456    0.0000 C   0  0  0  0  0  0  0  0  0
   -3.1949   -0.2206    0.0000 C   0  0  0  0  0  0  0  0  0
   -2.4804    0.1919    0.0000 C   0  0  0  0  0  0  0  0  0
   -1.7659   -0.2206    0.0000 C   0  0  0  0  0  0  0  0  0
   -1.7659   -1.0456    0.0000 C   0  0  0  0  0  0  0  0  0
   -2.4804   -1.4581    0.0000 C   0  0  0  0  0  0  0  0  0
   -1.0515    0.1919    0.0000 C   0  0  0  0  0  0  0  0  0
   -0.3370   -0.2206    0.0000 C   0  0  0  0  0  0  0  0  0
    0.3775    0.1919    0.0000 O   0  0  0  0  0  0  0  0  0
   -0.3370   -1.0456    0.0000 O   0  0  0  0  0  0  0  0  0
   -1.0515    1.0169    0.0000 C   0  0  0  0  0  0  0  0  0
   -3.9093    0.1919    0.0000 C   0  0  0  0  0  0  0  0  0
   -4.6238   -0.2206    0.0000 C   0  0  0  0  0  0  0  0  0
  1  2  1  0  0  0  0
  1  3  1  0  0  0  0
  3  4  4  0  0  0  0
  3 17  4  0  0  0  0
  4  5  4  0  0  0  0
  5  6  4  0  0  0  0
  5 10  4  0  0  0  0
  6  7  4  0  0  0  0
  6 16  4  0  0  0  0
  7  8  4  0  0  0  0
  8  9  4  0  0  0  0
  8 11  1  0  0  0  0
  9 10  4  0  0  0  0
 11 12  1  0  0  0  0
 11 15  1  0  0  0  0
 12 13  1  0  0  0  0
 12 14  2  0  0  0  0
 16 17  4  0  0  0  0
M  END
>  <Name_Molregno>
Naproxen

>  <5-HT1A>
5

>  <5-HT1B>
5

>  <5-HT1D>
5

>  <5-HT1E>
5

>  <5-HT2A>
5

>  <5-HT3>
5

>  <5-HT5>
5

>  <5-HT6>
5

>  <5-HT7>
5

>  <Alpha-1A>
5

>  <Alpha-1B>
5

>  <Alpha-2A>
5

>  <Alpha-2B>
5

>  <Alpha-2C>
5

>  <DOPAMINE D1>
5

>  <DOPAMINE D2>
5

>  <DOPAMINE D4>
5

>  <DOPAMINE D5>
5

>  <Dopamine transporter>
5

>  <HISTAMINE H1>
5

>  <HISTAMINE H2>
5

>  <HISTAMINE H4>
5

>  <Muscarinic acetylcholine receptor M2>
5

>  <Muscarinic acetylcholine receptor M5>
5

>  <Norepinephrine transporter>
5

>  <Serotonin transporter>
5

$$$$
N-DESMETHYLCLOZAPINE
  Marvin  02231216192D 0   1.00000     0.00000     0

 22 25  0  0  0  0  0  0  0  0999 V2000
   -0.3818   -1.7384    0.0000 Cl  0  0  0  0  0  0  0  0  0
    0.4065   -1.9816    0.0000 C   0  0  0  0  0  0  0  0  0
    1.0113   -1.4204    0.0000 C   0  0  0  0  0  0  0  0  0
    1.7996   -1.6636    0.0000 C   0  0  0  0  0  0  0  0  0
    2.3140   -1.0186    0.0000 N   0  0  0  0  0  0  0  0  0
    3.1390   -1.0186    0.0000 C   0  0  0  0  0  0  0  0  0
    3.4969   -0.2753    0.0000 N   0  0  0  0  0  0  0  0  0
    3.0322    0.4063    0.0000 C   0  0  0  0  0  0  0  0  0
    3.3902    1.1496    0.0000 C   0  0  0  0  0  0  0  0  0
    4.2129    1.2113    0.0000 N   0  0  0  0  0  0  0  0  0
    4.6776    0.5296    0.0000 C   0  0  0  0  0  0  0  0  0
    4.3196   -0.2137    0.0000 C   0  0  0  0  0  0  0  0  0
    3.6534   -1.6636    0.0000 C   0  0  0  0  0  0  0  0  0
    3.4698   -2.4679    0.0000 C   0  0  0  0  0  0  0  0  0
    2.7265   -2.8259    0.0000 N   0  0  0  0  0  0  0  0  0
    1.9832   -2.4679    0.0000 C   0  0  0  0  0  0  0  0  0
    1.3784   -3.0291    0.0000 C   0  0  0  0  0  0  0  0  0
    0.5901   -2.7859    0.0000 C   0  0  0  0  0  0  0  0  0
    4.0746   -3.0291    0.0000 C   0  0  0  0  0  0  0  0  0
    4.8629   -2.7859    0.0000 C   0  0  0  0  0  0  0  0  0
    5.0465   -1.9816    0.0000 C   0  0  0  0  0  0  0  0  0
    4.4417   -1.4204    0.0000 C   0  0  0  0  0  0  0  0  0
  1  2  1  0  0  0  0
  2  3  4  0  0  0  0
  2 18  4  0  0  0  0
  3  4  4  0  0  0  0
  4  5  1  0  0  0  0
  4 16  4  0  0  0  0
  5  6  1  0  0  0  0
  6  7  1  0  0  0  0
  6 13  2  0  0  0  0
  7  8  1  0  0  0  0
  7 12  1  0  0  0  0
  8  9  1  0  0  0  0
  9 10  1  0  0  0  0
 10 11  1  0  0  0  0
 11 12  1  0  0  0  0
 13 14  1  0  0  0  0
 13 22  1  0  0  0  0
 14 15  2  0  0  0  0
 14 19  1  0  0  0  0
 15 16  1  0  0  0  0
 16 17  4  0  0  0  0
 17 18  4  0  0  0  0
 19 20  2  0  0  0  0
 20 21  1  0  0  0  0
 21 22  2  0  0  0  0
M  END
>  <Name_Molregno>
N-DESMETHYLCLOZAPINE

>  <5-HT1A>
7.86

>  <5-HT1B>
6.39

>  <5-HT1D>
6.32

>  <5-HT1E>
6.41

>  <5-HT2A>
7.96

>  <5-HT3>
6.57

>  <5-HT5>
6.46

>  <5-HT6>
7.94

>  <5-HT7>
7.22

>  <Alpha-1A>
6.98

>  <Alpha-1B>
7.07

>  <Alpha-2A>
6.86

>  <Alpha-2B>
7.02

>  <Alpha-2C>
6.93

>  <Beta-1>
5.2

>  <Beta-2>
5.33

>  <DOPAMINE D1>
7.84

>  <DOPAMINE D2>
7

>  <DOPAMINE D3>
6.82

>  <DOPAMINE D4>
7.28

>  <DOPAMINE D5>
6.55

>  <Dopamine transporter>
5

>  <HISTAMINE H1>
8.47

>  <HISTAMINE H2>
6.46

>  <HISTAMINE H4>
5.99

>  <Muscarinic acetylcholine receptor M1>
7.17

>  <Muscarinic acetylcholine receptor M2>
6.38

>  <Muscarinic acetylcholine receptor M3>
7.02

>  <Muscarinic acetylcholine receptor M4>
6.77

>  <Muscarinic acetylcholine receptor M5>
7.45

>  <Norepinephrine transporter>
6.31

>  <Serotonin transporter>
6.5

$$$$
NEMONAPRIDE
  Marvin  02231216192D 0   1.00000     0.00000     0

 27 29  0  0  1  0  0  0  0  0999 V2000
    5.2060    2.2336    0.0000 Cl  0  0  0  0  0  0  0  0  0
    4.4916    1.8211    0.0000 C   0  0  0  0  0  0  0  0  0
    4.4916    0.9961    0.0000 C   0  0  0  0  0  0  0  0  0
    3.7771    0.5836    0.0000 C   0  0  0  0  0  0  0  0  0
    3.7771   -0.2414    0.0000 C   0  0  0  0  0  0  0  0  0
    4.4916   -0.6539    0.0000 O   0  0  0  0  0  0  0  0  0
    3.0626   -0.6539    0.0000 N   0  0  0  0  0  0  0  0  0
    3.0626   -1.4789    0.0000 C   0  0  0  0  0  0  0  0  0
    3.7300   -1.9638    0.0000 C   0  0  0  0  0  0  0  0  0
    3.4751   -2.7484    0.0000 C   0  0  0  0  0  0  0  0  0
    2.6501   -2.7484    0.0000 N   0  0  0  0  0  0  0  0  0
    2.1652   -3.4159    0.0000 C   0  0  0  0  0  0  0  0  0
    2.5007   -4.1696    0.0000 C   0  0  0  0  0  0  0  0  0
    3.3212   -4.2558    0.0000 C   0  0  0  0  0  0  0  0  0
    3.6568   -5.0095    0.0000 C   0  0  0  0  0  0  0  0  0
    3.1719   -5.6769    0.0000 C   0  0  0  0  0  0  0  0  0
    2.3514   -5.5907    0.0000 C   0  0  0  0  0  0  0  0  0
    2.0158   -4.8370    0.0000 C   0  0  0  0  0  0  0  0  0
    2.3952   -1.9638    0.0000 C   0  0  0  0  0  0  0  0  0
    1.6105   -1.7089    0.0000 C   0  0  0  0  0  0  0  0  0
    3.0626    0.9961    0.0000 C   0  0  0  0  0  0  0  0  0
    2.3481    0.5836    0.0000 O   0  0  0  0  0  0  0  0  0
    1.6337    0.9961    0.0000 C   0  0  0  0  0  0  0  0  0
    3.0626    1.8211    0.0000 C   0  0  0  0  0  0  0  0  0
    3.7771    2.2336    0.0000 C   0  0  0  0  0  0  0  0  0
    3.7771    3.0586    0.0000 N   0  0  0  0  0  0  0  0  0
    3.0626    3.4711    0.0000 C   0  0  0  0  0  0  0  0  0
  1  2  1  0  0  0  0
  2  3  4  0  0  0  0
  2 25  4  0  0  0  0
  3  4  4  0  0  0  0
  4  5  1  0  0  0  0
  4 21  4  0  0  0  0
  5  6  2  0  0  0  0
  5  7  1  0  0  0  0
  7  8  1  0  0  0  0
  8  9  1  0  0  0  0
  8 19  1  0  0  0  0
  9 10  1  0  0  0  0
 10 11  1  0  0  0  0
 11 12  1  0  0  0  0
 11 19  1  0  0  0  0
 12 13  1  0  0  0  0
 13 14  4  0  0  0  0
 13 18  4  0  0  0  0
 14 15  4  0  0  0  0
 15 16  4  0  0  0  0
 16 17  4  0  0  0  0
 17 18  4  0  0  0  0
 19 20  1  0  0  0  0
 21 22  1  0  0  0  0
 21 24  4  0  0  0  0
 22 23  1  0  0  0  0
 24 25  4  0  0  0  0
 25 26  1  0  0  0  0
 26 27  1  0  0  0  0
M  END
>  <Name_Molregno>
NEMONAPRIDE

>  <5-HT1A>
7.82

>  <DOPAMINE D1>
5.58

>  <DOPAMINE D2>
10.31

>  <DOPAMINE D3>
9.7

>  <DOPAMINE D4>
9.97

$$$$
NGD94-1
  Marvin  02231216192D 0   1.00000     0.00000     0

 24 27  0  0  0  0  0  0  0  0999 V2000
    3.3142   -0.9352    0.0000 N   0  0  0  0  0  0  0  0  0
    3.0593   -1.7198    0.0000 C   0  0  0  0  0  0  0  0  0
    2.2343   -1.7198    0.0000 N   0  0  0  0  0  0  0  0  0
    1.9794   -0.9352    0.0000 C   0  0  0  0  0  0  0  0  0
    2.6468   -0.4503    0.0000 C   0  0  0  0  0  0  0  0  0
    2.6468    0.3747    0.0000 C   0  0  0  0  0  0  0  0  0
    1.9323    0.7872    0.0000 N   0  0  0  0  0  0  0  0  0
    1.2178    0.3747    0.0000 C   0  0  0  0  0  0  0  0  0
    0.5034    0.7872    0.0000 C   0  0  0  0  0  0  0  0  0
    0.5034    1.6122    0.0000 N   0  0  0  0  0  0  0  0  0
    1.2178    2.0247    0.0000 C   0  0  0  0  0  0  0  0  0
    1.9323    1.6122    0.0000 C   0  0  0  0  0  0  0  0  0
   -0.2111    2.0247    0.0000 C   0  0  0  0  0  0  0  0  0
   -0.9256    1.6122    0.0000 N   0  0  0  0  0  0  0  0  0
   -1.6400    2.0247    0.0000 C   0  0  0  0  0  0  0  0  0
   -1.6400    2.8497    0.0000 C   0  0  0  0  0  0  0  0  0
   -0.9256    3.2622    0.0000 C   0  0  0  0  0  0  0  0  0
   -0.2111    2.8497    0.0000 N   0  0  0  0  0  0  0  0  0
    3.5442   -2.3873    0.0000 C   0  0  0  0  0  0  0  0  0
    4.3647   -2.3010    0.0000 C   0  0  0  0  0  0  0  0  0
    4.8496   -2.9685    0.0000 C   0  0  0  0  0  0  0  0  0
    4.5141   -3.7222    0.0000 C   0  0  0  0  0  0  0  0  0
    3.6936   -3.8084    0.0000 C   0  0  0  0  0  0  0  0  0
    3.2087   -3.1410    0.0000 C   0  0  0  0  0  0  0  0  0
  1  2  4  0  0  0  0
  1  5  4  0  0  0  0
  2  3  4  0  0  0  0
  2 19  1  0  0  0  0
  3  4  4  0  0  0  0
  4  5  4  0  0  0  0
  5  6  1  0  0  0  0
  6  7  1  0  0  0  0
  7  8  1  0  0  0  0
  7 12  1  0  0  0  0
  8  9  1  0  0  0  0
  9 10  1  0  0  0  0
 10 11  1  0  0  0  0
 10 13  1  0  0  0  0
 11 12  1  0  0  0  0
 13 14  4  0  0  0  0
 13 18  4  0  0  0  0
 14 15  4  0  0  0  0
 15 16  4  0  0  0  0
 16 17  4  0  0  0  0
 17 18  4  0  0  0  0
 19 20  4  0  0  0  0
 19 24  4  0  0  0  0
 20 21  4  0  0  0  0
 21 22  4  0  0  0  0
 22 23  4  0  0  0  0
 23 24  4  0  0  0  0
M  STY  1   1 DAT
M  SAL   1  1   1
M  SDT   1 MRV_IMPLICIT_H                                        
M  SDD   1     0.0000    0.0000    DR    ALL  0       0  
M  SED   1 IMPL_H1
M  END
>  <Name_Molregno>
NGD94-1

>  <DOPAMINE D4>
8.52

$$$$
nimesulide
  Marvin  02231216192D 0   1.00000     0.00000     0

 21 22  0  0  0  0  0  0  0  0999 V2000
    3.1126    1.9121    0.0000 S   0  0  0  0  0  0  0  0  0
    3.8271    2.3246    0.0000 O   0  0  0  0  0  0  0  0  0
    2.7001    2.6266    0.0000 O   0  0  0  0  0  0  0  0  0
    2.3982    1.4996    0.0000 N   0  0  0  0  0  0  0  0  0
    2.3982    0.6746    0.0000 C   0  0  0  0  0  0  0  0  0
    3.1126    0.2621    0.0000 C   0  0  0  0  0  0  0  0  0
    3.1126   -0.5629    0.0000 C   0  0  0  0  0  0  0  0  0
    2.3982   -0.9754    0.0000 C   0  0  0  0  0  0  0  0  0
    2.3982   -1.8004    0.0000 N   0  3  0  0  0  0  0  0  0
    1.6837   -2.2129    0.0000 O   0  5  0  0  0  0  0  0  0
    3.1126   -2.2129    0.0000 O   0  5  0  0  0  0  0  0  0
    1.6837   -0.5629    0.0000 C   0  0  0  0  0  0  0  0  0
    1.6837    0.2621    0.0000 C   0  0  0  0  0  0  0  0  0
    0.9692    0.6746    0.0000 O   0  0  0  0  0  0  0  0  0
    0.9692    1.4996    0.0000 C   0  0  0  0  0  0  0  0  0
    0.2548    1.9121    0.0000 C   0  0  0  0  0  0  0  0  0
    0.2548    2.7371    0.0000 C   0  0  0  0  0  0  0  0  0
    0.9692    3.1496    0.0000 C   0  0  0  0  0  0  0  0  0
    1.6837    2.7371    0.0000 C   0  0  0  0  0  0  0  0  0
    1.6837    1.9121    0.0000 C   0  0  0  0  0  0  0  0  0
    3.5251    1.1976    0.0000 C   0  0  0  0  0  0  0  0  0
  1  2  2  0  0  0  0
  1  3  2  0  0  0  0
  1  4  1  0  0  0  0
  1 21  1  0  0  0  0
  4  5  1  0  0  0  0
  5  6  4  0  0  0  0
  5 13  4  0  0  0  0
  6  7  4  0  0  0  0
  7  8  4  0  0  0  0
  8  9  1  0  0  0  0
  8 12  4  0  0  0  0
  9 10  1  0  0  0  0
  9 11  1  0  0  0  0
 12 13  4  0  0  0  0
 13 14  1  0  0  0  0
 14 15  1  0  0  0  0
 15 16  4  0  0  0  0
 15 20  4  0  0  0  0
 16 17  4  0  0  0  0
 17 18  4  0  0  0  0
 18 19  4  0  0  0  0
 19 20  4  0  0  0  0
M  CHG  3   9   1  10  -1  11  -1
M  END
>  <Name_Molregno>
nimesulide

>  <5-HT1A>
5

>  <5-HT1B>
5

>  <5-HT1D>
5

>  <5-HT1E>
5

>  <5-HT2A>
5

>  <5-HT3>
5

>  <5-HT5>
5

>  <5-HT6>
5

>  <5-HT7>
5

>  <Alpha-1A>
5

>  <Alpha-1B>
5

>  <Alpha-2A>
5

>  <Alpha-2B>
5

>  <Alpha-2C>
5

>  <DOPAMINE D1>
5

>  <DOPAMINE D2>
5

>  <DOPAMINE D4>
5

>  <DOPAMINE D5>
5

>  <Dopamine transporter>
5

>  <HISTAMINE H1>
5

>  <HISTAMINE H2>
5

>  <HISTAMINE H4>
5

>  <Muscarinic acetylcholine receptor M2>
5

>  <Muscarinic acetylcholine receptor M5>
5

>  <Norepinephrine transporter>
5

>  <Serotonin transporter>
5

$$$$
Norephedrine
  Marvin  02231216192D 0   1.00000     0.00000     0

 11 11  0  0  1  0  0  0  0  0999 V2000
    1.9974    0.2298    0.0000 O   0  0  0  0  0  0  0  0  0
    1.2829   -0.1827    0.0000 C   0  0  0  0  0  0  0  0  0
    0.5684    0.2298    0.0000 C   0  0  0  0  0  0  0  0  0
    0.5684    1.0548    0.0000 N   0  0  0  0  0  0  0  0  0
   -0.1461   -0.1827    0.0000 C   0  0  0  0  0  0  0  0  0
    1.2829   -1.0077    0.0000 C   0  0  0  0  0  0  0  0  0
    1.9974   -1.4202    0.0000 C   0  0  0  0  0  0  0  0  0
    1.9974   -2.2452    0.0000 C   0  0  0  0  0  0  0  0  0
    1.2829   -2.6577    0.0000 C   0  0  0  0  0  0  0  0  0
    0.5684   -2.2452    0.0000 C   0  0  0  0  0  0  0  0  0
    0.5684   -1.4202    0.0000 C   0  0  0  0  0  0  0  0  0
  1  2  1  0  0  0  0
  2  3  1  0  0  0  0
  2  6  1  0  0  0  0
  3  4  1  0  0  0  0
  3  5  1  0  0  0  0
  6  7  4  0  0  0  0
  6 11  4  0  0  0  0
  7  8  4  0  0  0  0
  8  9  4  0  0  0  0
  9 10  4  0  0  0  0
 10 11  4  0  0  0  0
M  END
>  <Name_Molregno>
Norephedrine

>  <5-HT1A>
5

>  <5-HT1B>
5

>  <5-HT1D>
5

>  <5-HT1E>
5

>  <5-HT3>
5

>  <5-HT5>
5

>  <5-HT6>
5

>  <5-HT7>
5.04

>  <Alpha-1A>
5

>  <Alpha-1B>
5

>  <Alpha-2A>
5.64

>  <Alpha-2B>
5.73

>  <Alpha-2C>
6.04

>  <Beta-1>
5

>  <Beta-2>
5

>  <DOPAMINE D1>
5

>  <DOPAMINE D2>
5

>  <DOPAMINE D4>
5

>  <DOPAMINE D5>
5

>  <Dopamine transporter>
5.76

>  <HISTAMINE H1>
5

>  <HISTAMINE H2>
5

>  <HISTAMINE H4>
5

>  <Muscarinic acetylcholine receptor M1>
5.04

>  <Muscarinic acetylcholine receptor M2>
5

>  <Muscarinic acetylcholine receptor M3>
5

>  <Muscarinic acetylcholine receptor M4>
5

>  <Muscarinic acetylcholine receptor M5>
5

>  <Norepinephrine transporter>
6.34

>  <Serotonin transporter>
5

$$$$
Norfenfluramine
  Marvin  02231216192D 0   1.00000     0.00000     0

 14 14  0  0  1  0  0  0  0  0999 V2000
    0.4631   -1.9707    0.0000 F   0  0  0  0  0  0  0  0  0
    1.1776   -1.5582    0.0000 C   0  0  0  0  0  0  0  0  0
    1.5901   -2.2727    0.0000 F   0  0  0  0  0  0  0  0  0
    0.7651   -0.8437    0.0000 F   0  0  0  0  0  0  0  0  0
    1.8921   -1.1457    0.0000 C   0  0  0  0  0  0  0  0  0
    1.8921   -0.3207    0.0000 C   0  0  0  0  0  0  0  0  0
    2.6065    0.0918    0.0000 C   0  0  0  0  0  0  0  0  0
    3.3210   -0.3207    0.0000 C   0  0  0  0  0  0  0  0  0
    3.3210   -1.1457    0.0000 C   0  0  0  0  0  0  0  0  0
    2.6065   -1.5582    0.0000 C   0  0  0  0  0  0  0  0  0
    2.6065    0.9168    0.0000 C   0  0  0  0  0  0  0  0  0
    3.3210    1.3293    0.0000 C   0  0  0  0  0  0  0  0  0
    3.3210    2.1543    0.0000 N   0  0  0  0  0  0  0  0  0
    4.0355    0.9168    0.0000 C   0  0  0  0  0  0  0  0  0
  1  2  1  0  0  0  0
  2  3  1  0  0  0  0
  2  4  1  0  0  0  0
  2  5  1  0  0  0  0
  5  6  4  0  0  0  0
  5 10  4  0  0  0  0
  6  7  4  0  0  0  0
  7  8  4  0  0  0  0
  7 11  1  0  0  0  0
  8  9  4  0  0  0  0
  9 10  4  0  0  0  0
 11 12  1  0  0  0  0
 12 13  1  0  0  0  0
 12 14  1  0  0  0  0
M  END
>  <Name_Molregno>
Norfenfluramine

>  <5-HT1A>
5.77

>  <5-HT1B>
5.57

>  <5-HT1D>
5.88

>  <5-HT1E>
5

>  <5-HT3>
5

>  <5-HT5>
5

>  <5-HT6>
5

>  <5-HT7>
6.44

>  <Alpha-1A>
5.11

>  <Alpha-1B>
5

>  <Alpha-2A>
5.42

>  <Alpha-2B>
5.75

>  <Alpha-2C>
6.08

>  <Beta-1>
5

>  <Beta-2>
5

>  <DOPAMINE D1>
5

>  <DOPAMINE D2>
5

>  <DOPAMINE D4>
5

>  <DOPAMINE D5>
5

>  <Dopamine transporter>
5

>  <HISTAMINE H1>
5

>  <HISTAMINE H2>
5

>  <Muscarinic acetylcholine receptor M1>
5.42

>  <Muscarinic acetylcholine receptor M2>
5.24

>  <Muscarinic acetylcholine receptor M3>
6.04

>  <Muscarinic acetylcholine receptor M4>
5.31

>  <Muscarinic acetylcholine receptor M5>
5.78

>  <Norepinephrine transporter>
5

>  <Serotonin transporter>
5

$$$$
NPA
  Marvin  02231216192D 0   1.00000     0.00000     0

 22 24  0  0  0  0  0  0  0  0999 V2000
    4.3238   -1.8089    0.0000 O   0  0  0  0  0  0  0  0  0
    3.6094   -1.3964    0.0000 C   0  0  0  0  0  0  0  0  0
    3.6094   -0.5714    0.0000 O   0  0  0  0  0  0  0  0  0
    2.8949   -1.8089    0.0000 C   0  0  0  0  0  0  0  0  0
    2.8949   -2.6339    0.0000 C   0  0  0  0  0  0  0  0  0
    2.1804   -3.0464    0.0000 C   0  0  0  0  0  0  0  0  0
    1.4659   -2.6339    0.0000 C   0  0  0  0  0  0  0  0  0
    1.4659   -1.8089    0.0000 C   0  0  0  0  0  0  0  0  0
    2.1804   -1.3964    0.0000 C   0  0  0  0  0  0  0  0  0
    2.1804   -0.5714    0.0000 C   0  0  0  0  0  0  0  0  0
    1.4659   -0.1589    0.0000 O   0  0  0  0  0  0  0  0  0
    2.8949   -0.1589    0.0000 N   0  0  0  0  0  0  0  0  0
    2.8949    0.6661    0.0000 C   0  0  0  0  0  0  0  0  0
    3.6094    1.0786    0.0000 C   0  0  0  0  0  0  0  0  0
    3.6094    1.9036    0.0000 C   0  0  0  0  0  0  0  0  0
    2.8949    2.3161    0.0000 C   0  0  0  0  0  0  0  0  0
    2.1804    1.9036    0.0000 C   0  0  0  0  0  0  0  0  0
    2.1804    1.0786    0.0000 C   0  0  0  0  0  0  0  0  0
    4.3238    2.3161    0.0000 C   0  0  0  0  0  0  0  0  0
    5.0383    1.9036    0.0000 C   0  0  0  0  0  0  0  0  0
    5.0383    1.0786    0.0000 C   0  0  0  0  0  0  0  0  0
    4.3238    0.6661    0.0000 C   0  0  0  0  0  0  0  0  0
  1  2  1  0  0  0  0
  2  3  2  0  0  0  0
  2  4  1  0  0  0  0
  4  5  4  0  0  0  0
  4  9  4  0  0  0  0
  5  6  4  0  0  0  0
  6  7  4  0  0  0  0
  7  8  4  0  0  0  0
  8  9  4  0  0  0  0
  9 10  1  0  0  0  0
 10 11  2  0  0  0  0
 10 12  1  0  0  0  0
 12 13  1  0  0  0  0
 13 14  4  0  0  0  0
 13 18  4  0  0  0  0
 14 15  4  0  0  0  0
 14 22  4  0  0  0  0
 15 16  4  0  0  0  0
 15 19  4  0  0  0  0
 16 17  4  0  0  0  0
 17 18  4  0  0  0  0
 19 20  4  0  0  0  0
 20 21  4  0  0  0  0
 21 22  4  0  0  0  0
M  END
>  <Name_Molregno>
NPA

>  <DOPAMINE D1>
5.77

>  <DOPAMINE D2>
6.42

>  <DOPAMINE D4>
7.74

>  <DOPAMINE D5>
5.94

$$$$
Ocaperidone
  Marvin  02231216192D 0   1.00000     0.00000     0

 31 35  0  0  0  0  0  0  0  0999 V2000
    1.7758   -2.6889    0.0000 F   0  0  0  0  0  0  0  0  0
    2.0308   -1.9043    0.0000 C   0  0  0  0  0  0  0  0  0
    1.4788   -1.2912    0.0000 C   0  0  0  0  0  0  0  0  0
    1.7337   -0.5066    0.0000 C   0  0  0  0  0  0  0  0  0
    1.3212    0.2079    0.0000 O   0  0  0  0  0  0  0  0  0
    1.8732    0.8210    0.0000 N   0  0  0  0  0  0  0  0  0
    2.6269    0.4854    0.0000 C   0  0  0  0  0  0  0  0  0
    2.5407   -0.3350    0.0000 C   0  0  0  0  0  0  0  0  0
    3.0927   -0.9481    0.0000 C   0  0  0  0  0  0  0  0  0
    2.8378   -1.7327    0.0000 C   0  0  0  0  0  0  0  0  0
    3.3414    0.8979    0.0000 C   0  0  0  0  0  0  0  0  0
    3.3414    1.7229    0.0000 C   0  0  0  0  0  0  0  0  0
    4.0558    2.1354    0.0000 C   0  0  0  0  0  0  0  0  0
    4.7703    1.7229    0.0000 N   0  0  0  0  0  0  0  0  0
    4.7703    0.8979    0.0000 C   0  0  0  0  0  0  0  0  0
    4.0558    0.4854    0.0000 C   0  0  0  0  0  0  0  0  0
    5.4848    2.1354    0.0000 C   0  0  0  0  0  0  0  0  0
    6.1993    1.7229    0.0000 C   0  0  0  0  0  0  0  0  0
    6.9137    2.1354    0.0000 C   0  0  0  0  0  0  0  0  0
    7.6282    1.7229    0.0000 C   0  0  0  0  0  0  0  0  0
    7.6282    0.8979    0.0000 O   0  0  0  0  0  0  0  0  0
    8.3427    2.1354    0.0000 N   0  0  0  0  0  0  0  0  0
    8.3427    2.9604    0.0000 C   0  0  0  0  0  0  0  0  0
    7.6282    3.3729    0.0000 N   0  0  0  0  0  0  0  0  0
    6.9137    2.9604    0.0000 C   0  0  0  0  0  0  0  0  0
    6.1993    3.3729    0.0000 C   0  0  0  0  0  0  0  0  0
    9.0571    3.3729    0.0000 C   0  0  0  0  0  0  0  0  0
    9.7716    2.9604    0.0000 C   0  0  0  0  0  0  0  0  0
    9.7716    2.1354    0.0000 C   0  0  0  0  0  0  0  0  0
    9.0571    1.7229    0.0000 C   0  0  0  0  0  0  0  0  0
    9.0571    4.1979    0.0000 C   0  0  0  0  0  0  0  0  0
  1  2  1  0  0  0  0
  2  3  4  0  0  0  0
  2 10  4  0  0  0  0
  3  4  4  0  0  0  0
  4  5  4  0  0  0  0
  4  8  4  0  0  0  0
  5  6  4  0  0  0  0
  6  7  4  0  0  0  0
  7  8  4  0  0  0  0
  7 11  1  0  0  0  0
  8  9  4  0  0  0  0
  9 10  4  0  0  0  0
 11 12  1  0  0  0  0
 11 16  1  0  0  0  0
 12 13  1  0  0  0  0
 13 14  1  0  0  0  0
 14 15  1  0  0  0  0
 14 17  1  0  0  0  0
 15 16  1  0  0  0  0
 17 18  1  0  0  0  0
 18 19  1  0  0  0  0
 19 20  1  0  0  0  0
 19 25  2  0  0  0  0
 20 21  2  0  0  0  0
 20 22  1  0  0  0  0
 22 23  1  0  0  0  0
 22 30  1  0  0  0  0
 23 24  2  0  0  0  0
 23 27  1  0  0  0  0
 24 25  1  0  0  0  0
 25 26  1  0  0  0  0
 27 28  2  0  0  0  0
 27 31  1  0  0  0  0
 28 29  1  0  0  0  0
 29 30  2  0  0  0  0
M  END
>  <Name_Molregno>
Ocaperidone

>  <5-HT1A>
7.86

>  <DOPAMINE D2>
9.7

>  <DOPAMINE D3>
8.84

>  <DOPAMINE D4>
8.18

$$$$
OLANZAPINE
  Marvin  02231216192D 0   1.00000     0.00000     0

 22 25  0  0  0  0  0  0  0  0999 V2000
   -1.5954    3.4952    0.0000 S   0  0  0  0  0  0  0  0  0
   -0.8919    3.0642    0.0000 C   0  0  0  0  0  0  0  0  0
   -0.1447    3.4138    0.0000 N   0  0  0  0  0  0  0  0  0
    0.5946    3.0476    0.0000 C   0  0  0  0  0  0  0  0  0
    0.7691    2.2413    0.0000 C   0  0  0  0  0  0  0  0  0
    0.2476    1.6020    0.0000 N   0  0  0  0  0  0  0  0  0
   -0.5774    1.6113    0.0000 C   0  0  0  0  0  0  0  0  0
   -0.9436    0.8720    0.0000 N   0  0  0  0  0  0  0  0  0
   -0.4865    0.1852    0.0000 C   0  0  0  0  0  0  0  0  0
   -0.8527   -0.5540    0.0000 C   0  0  0  0  0  0  0  0  0
   -1.6761   -0.6065    0.0000 N   0  0  0  0  0  0  0  0  0
   -2.1332    0.0803    0.0000 C   0  0  0  0  0  0  0  0  0
   -1.7669    0.8196    0.0000 C   0  0  0  0  0  0  0  0  0
   -2.0423   -1.3458    0.0000 C   0  0  0  0  0  0  0  0  0
   -1.0845    2.2620    0.0000 C   0  0  0  0  0  0  0  0  0
   -1.9069    2.1972    0.0000 C   0  0  0  0  0  0  0  0  0
   -2.2227    2.9594    0.0000 C   0  0  0  0  0  0  0  0  0
   -3.0249    3.1520    0.0000 C   0  0  0  0  0  0  0  0  0
    1.5547    1.9893    0.0000 C   0  0  0  0  0  0  0  0  0
    2.1657    2.5436    0.0000 C   0  0  0  0  0  0  0  0  0
    1.9912    3.3499    0.0000 C   0  0  0  0  0  0  0  0  0
    1.2056    3.6019    0.0000 C   0  0  0  0  0  0  0  0  0
  1  2  1  0  0  0  0
  1 17  1  0  0  0  0
  2  3  2  0  0  0  0
  2 15  1  0  0  0  0
  3  4  1  0  0  0  0
  4  5  4  0  0  0  0
  4 22  4  0  0  0  0
  5  6  1  0  0  0  0
  5 19  4  0  0  0  0
  6  7  1  0  0  0  0
  7  8  1  0  0  0  0
  7 15  2  0  0  0  0
  8  9  1  0  0  0  0
  8 13  1  0  0  0  0
  9 10  1  0  0  0  0
 10 11  1  0  0  0  0
 11 12  1  0  0  0  0
 11 14  1  0  0  0  0
 12 13  1  0  0  0  0
 15 16  1  0  0  0  0
 16 17  2  0  0  0  0
 17 18  1  0  0  0  0
 19 20  4  0  0  0  0
 20 21  4  0  0  0  0
 21 22  4  0  0  0  0
M  END
>  <Name_Molregno>
OLANZAPINE

>  <5-HT1A>
5.77

>  <5-HT1B>
6.23

>  <5-HT1D>
6.3

>  <5-HT1E>
5.66

>  <5-HT2A>
8.46

>  <5-HT2C>
7.86

>  <5-HT3>
6.69

>  <5-HT5>
5.92

>  <5-HT6>
7.97

>  <5-HT7>
6.73

>  <Alpha-1A>
6.95

>  <Alpha-1B>
6.58

>  <Alpha-2A>
6.51

>  <Alpha-2B>
6.97

>  <Alpha-2C>
7.21

>  <Beta-1>
5.15

>  <Beta-2>
5.15

>  <DOPAMINE D1>
7.3

>  <DOPAMINE D2>
7.67

>  <DOPAMINE D3>
7.53

>  <DOPAMINE D4>
7.73

>  <DOPAMINE D5>
7.09

>  <Dopamine transporter>
5

>  <HISTAMINE H1>
8.96

>  <HISTAMINE H2>
7.36

>  <HISTAMINE H4>
5

>  <Muscarinic acetylcholine receptor M1>
7.99

>  <Muscarinic acetylcholine receptor M2>
6.93

>  <Muscarinic acetylcholine receptor M3>
7.33

>  <Muscarinic acetylcholine receptor M4>
7.35

>  <Muscarinic acetylcholine receptor M5>
7.78

>  <Norepinephrine transporter>
5

>  <Serotonin transporter>
5.48

$$$$
OLANZAPINE-2
  Marvin  02231216192D 0   1.00000     0.00000     0

 22 25  0  0  0  0  0  0  0  0999 V2000
   -1.5954    3.4952    0.0000 S   0  0  0  0  0  0  0  0  0
   -0.8919    3.0642    0.0000 C   0  0  0  0  0  0  0  0  0
   -0.1447    3.4138    0.0000 N   0  0  0  0  0  0  0  0  0
    0.5946    3.0476    0.0000 C   0  0  0  0  0  0  0  0  0
    0.7691    2.2413    0.0000 C   0  0  0  0  0  0  0  0  0
    0.2476    1.6020    0.0000 N   0  0  0  0  0  0  0  0  0
   -0.5774    1.6113    0.0000 C   0  0  0  0  0  0  0  0  0
   -0.9436    0.8720    0.0000 N   0  0  0  0  0  0  0  0  0
   -0.4865    0.1852    0.0000 C   0  0  0  0  0  0  0  0  0
   -0.8527   -0.5540    0.0000 C   0  0  0  0  0  0  0  0  0
   -1.6761   -0.6065    0.0000 N   0  0  0  0  0  0  0  0  0
   -2.1332    0.0803    0.0000 C   0  0  0  0  0  0  0  0  0
   -1.7669    0.8196    0.0000 C   0  0  0  0  0  0  0  0  0
   -2.0423   -1.3458    0.0000 C   0  0  0  0  0  0  0  0  0
   -1.0845    2.2620    0.0000 C   0  0  0  0  0  0  0  0  0
   -1.9069    2.1972    0.0000 C   0  0  0  0  0  0  0  0  0
   -2.2227    2.9594    0.0000 C   0  0  0  0  0  0  0  0  0
   -3.0249    3.1520    0.0000 C   0  0  0  0  0  0  0  0  0
    1.5547    1.9893    0.0000 C   0  0  0  0  0  0  0  0  0
    2.1657    2.5436    0.0000 C   0  0  0  0  0  0  0  0  0
    1.9912    3.3499    0.0000 C   0  0  0  0  0  0  0  0  0
    1.2056    3.6019    0.0000 C   0  0  0  0  0  0  0  0  0
  1  2  4  0  0  0  0
  1 17  4  0  0  0  0
  2  3  1  0  0  0  0
  2 15  4  0  0  0  0
  3  4  1  0  0  0  0
  4  5  4  0  0  0  0
  4 22  4  0  0  0  0
  5  6  1  0  0  0  0
  5 19  4  0  0  0  0
  6  7  2  0  0  0  0
  7  8  1  0  0  0  0
  7 15  1  0  0  0  0
  8  9  1  0  0  0  0
  8 13  1  0  0  0  0
  9 10  1  0  0  0  0
 10 11  1  0  0  0  0
 11 12  1  0  0  0  0
 11 14  1  0  0  0  0
 12 13  1  0  0  0  0
 15 16  4  0  0  0  0
 16 17  4  0  0  0  0
 17 18  1  0  0  0  0
 19 20  4  0  0  0  0
 20 21  4  0  0  0  0
 21 22  4  0  0  0  0
M  END
>  <Name_Molregno>
OLANZAPINE-2

>  <5-HT1A>
5.68

>  <5-HT2A>
8.66

>  <5-HT2C>
8.05

>  <5-HT3>
6.7

>  <5-HT6>
7.8

>  <5-HT7>
6.77

>  <Alpha-2A>
6.72

>  <Alpha-2C>
7.09

>  <DOPAMINE D1>
7.28

>  <DOPAMINE D2>
7.63

>  <DOPAMINE D3>
7.47

>  <DOPAMINE D4>
7.3

>  <HISTAMINE H1>
8.74

>  <Muscarinic acetylcholine receptor M1>
8.16

>  <Muscarinic acetylcholine receptor M4>
7.9

>  <Serotonin transporter>
4.82

$$$$
ORG-5222
  Marvin  02231216192D 0   1.00000     0.00000     0

 20 23  0  0  1  0  0  0  0  0999 V2000
   -0.0754   -0.1702    0.0000 Cl  0  0  0  0  0  0  0  0  0
    0.7129   -0.4133    0.0000 C   0  0  0  0  0  0  0  0  0
    1.3177    0.1478    0.0000 C   0  0  0  0  0  0  0  0  0
    2.1060   -0.0954    0.0000 C   0  0  0  0  0  0  0  0  0
    2.6204    0.5496    0.0000 C   0  0  0  0  0  0  0  0  0
    3.4454    0.5496    0.0000 C   0  0  0  0  0  0  0  0  0
    3.9598   -0.0954    0.0000 C   0  0  0  0  0  0  0  0  0
    3.7762   -0.8997    0.0000 C   0  0  0  0  0  0  0  0  0
    3.0329   -1.2576    0.0000 O   0  0  0  0  0  0  0  0  0
    2.2896   -0.8997    0.0000 C   0  0  0  0  0  0  0  0  0
    1.6849   -1.4608    0.0000 C   0  0  0  0  0  0  0  0  0
    0.8965   -1.2176    0.0000 C   0  0  0  0  0  0  0  0  0
    4.3810   -1.4608    0.0000 C   0  0  0  0  0  0  0  0  0
    5.1693   -1.2176    0.0000 C   0  0  0  0  0  0  0  0  0
    5.3529   -0.4133    0.0000 C   0  0  0  0  0  0  0  0  0
    4.7482    0.1478    0.0000 C   0  0  0  0  0  0  0  0  0
    3.7004    1.3343    0.0000 C   0  0  0  0  0  0  0  0  0
    3.0329    1.8192    0.0000 N   0  0  0  0  0  0  0  0  0
    2.3655    1.3343    0.0000 C   0  0  0  0  0  0  0  0  0
    3.0329    2.6442    0.0000 C   0  0  0  0  0  0  0  0  0
  1  2  1  0  0  0  0
  2  3  4  0  0  0  0
  2 12  4  0  0  0  0
  3  4  4  0  0  0  0
  4  5  1  0  0  0  0
  4 10  4  0  0  0  0
  5  6  1  0  0  0  0
  5 19  1  0  0  0  0
  6  7  1  0  0  0  0
  6 17  1  0  0  0  0
  7  8  4  0  0  0  0
  7 16  4  0  0  0  0
  8  9  1  0  0  0  0
  8 13  4  0  0  0  0
  9 10  1  0  0  0  0
 10 11  4  0  0  0  0
 11 12  4  0  0  0  0
 13 14  4  0  0  0  0
 14 15  4  0  0  0  0
 15 16  4  0  0  0  0
 17 18  1  0  0  0  0
 18 19  1  0  0  0  0
 18 20  1  0  0  0  0
M  END
>  <Name_Molregno>
ORG-5222

>  <5-HT1A>
7.7

>  <5-HT1B>
8.34

>  <5-HT1D>
8.07

>  <5-HT1E>
7.69

>  <5-HT2A>
9.41

>  <5-HT2C>
9.63

>  <5-HT3>
6.35

>  <5-HT5>
8.4

>  <5-HT6>
8.85

>  <5-HT7>
9.05

>  <Alpha-1A>
8.36

>  <Alpha-1B>
8.41

>  <Alpha-2A>
8.08

>  <Alpha-2B>
8.64

>  <Alpha-2C>
7.82

>  <Beta-1>
5.3

>  <Beta-2>
5.3

>  <DOPAMINE D1>
8.54

>  <DOPAMINE D2>
8.72

>  <DOPAMINE D3>
8.74

>  <DOPAMINE D4>
8.58

>  <DOPAMINE D5>
7.64

>  <Dopamine transporter>
5.5

>  <HISTAMINE H1>
8.91

>  <HISTAMINE H2>
8.64

>  <HISTAMINE H4>
5

>  <Muscarinic acetylcholine receptor M1>
7.61

>  <Muscarinic acetylcholine receptor M2>
7.1

>  <Muscarinic acetylcholine receptor M3>
7.41

>  <Muscarinic acetylcholine receptor M4>
5

>  <Muscarinic acetylcholine receptor M5>
8.02

>  <Norepinephrine transporter>
5

>  <Serotonin transporter>
5.5

$$$$
PARECOXIB
  Marvin  02231216192D 0   1.00000     0.00000     0

 26 28  0  0  0  0  0  0  0  0999 V2000
    3.2898   -1.2399    0.0000 S   0  0  0  0  0  0  0  0  0
    3.7023   -0.5254    0.0000 O   0  0  0  0  0  0  0  0  0
    2.8773   -1.9544    0.0000 O   0  0  0  0  0  0  0  0  0
    4.0042   -1.6524    0.0000 N   0  0  0  0  0  0  0  0  0
    4.7187   -1.2399    0.0000 C   0  0  0  0  0  0  0  0  0
    4.7187   -0.4149    0.0000 O   0  0  0  0  0  0  0  0  0
    5.4332   -1.6524    0.0000 C   0  0  0  0  0  0  0  0  0
    6.1476   -1.2399    0.0000 C   0  0  0  0  0  0  0  0  0
    2.5753   -0.8274    0.0000 C   0  0  0  0  0  0  0  0  0
    1.8608   -1.2399    0.0000 C   0  0  0  0  0  0  0  0  0
    1.1463   -0.8274    0.0000 C   0  0  0  0  0  0  0  0  0
    1.1463   -0.0024    0.0000 C   0  0  0  0  0  0  0  0  0
    1.8608    0.4101    0.0000 C   0  0  0  0  0  0  0  0  0
    2.5753   -0.0024    0.0000 C   0  0  0  0  0  0  0  0  0
    0.4319    0.4101    0.0000 C   0  0  0  0  0  0  0  0  0
   -0.3218    0.0745    0.0000 C   0  0  0  0  0  0  0  0  0
   -0.8738    0.6876    0.0000 N   0  0  0  0  0  0  0  0  0
   -0.4613    1.4021    0.0000 O   0  0  0  0  0  0  0  0  0
    0.3456    1.2306    0.0000 C   0  0  0  0  0  0  0  0  0
    0.9587    1.7826    0.0000 C   0  0  0  0  0  0  0  0  0
   -0.4933   -0.7324    0.0000 C   0  0  0  0  0  0  0  0  0
    0.1198   -1.2845    0.0000 C   0  0  0  0  0  0  0  0  0
   -0.0518   -2.0914    0.0000 C   0  0  0  0  0  0  0  0  0
   -0.8364   -2.3464    0.0000 C   0  0  0  0  0  0  0  0  0
   -1.4495   -1.7943    0.0000 C   0  0  0  0  0  0  0  0  0
   -1.2779   -0.9874    0.0000 C   0  0  0  0  0  0  0  0  0
  1  2  2  0  0  0  0
  1  3  2  0  0  0  0
  1  4  1  0  0  0  0
  1  9  1  0  0  0  0
  4  5  1  0  0  0  0
  5  6  2  0  0  0  0
  5  7  1  0  0  0  0
  7  8  1  0  0  0  0
  9 10  4  0  0  0  0
  9 14  4  0  0  0  0
 10 11  4  0  0  0  0
 11 12  4  0  0  0  0
 12 13  4  0  0  0  0
 12 15  1  0  0  0  0
 13 14  4  0  0  0  0
 15 16  4  0  0  0  0
 15 19  4  0  0  0  0
 16 17  4  0  0  0  0
 16 21  1  0  0  0  0
 17 18  4  0  0  0  0
 18 19  4  0  0  0  0
 19 20  1  0  0  0  0
 21 22  4  0  0  0  0
 21 26  4  0  0  0  0
 22 23  4  0  0  0  0
 23 24  4  0  0  0  0
 24 25  4  0  0  0  0
 25 26  4  0  0  0  0
M  END
>  <Name_Molregno>
PARECOXIB

>  <5-HT1A>
5

>  <5-HT1B>
5

>  <5-HT1D>
5

>  <5-HT1E>
5

>  <5-HT2A>
5

>  <5-HT3>
5

>  <5-HT6>
5

>  <5-HT7>
5

>  <Alpha-1A>
5

>  <Alpha-1B>
5

>  <Alpha-2A>
5

>  <Alpha-2B>
5

>  <Alpha-2C>
5

>  <DOPAMINE D1>
5

>  <DOPAMINE D2>
5

>  <DOPAMINE D4>
5

>  <DOPAMINE D5>
5

>  <Dopamine transporter>
5

>  <HISTAMINE H1>
5

>  <HISTAMINE H2>
5

>  <HISTAMINE H4>
5

>  <Muscarinic acetylcholine receptor M2>
5

>  <Muscarinic acetylcholine receptor M5>
5

>  <Norepinephrine transporter>
5

>  <Serotonin transporter>
5

$$$$
PBR28
  Marvin  02231216192D 0   1.00000     0.00000     0

 26 28  0  0  0  0  0  0  0  0999 V2000
    0.4191    0.0796    0.0000 O   0  0  0  0  0  0  0  0  0
    0.4191   -0.7454    0.0000 C   0  0  0  0  0  0  0  0  0
    1.1336   -1.1579    0.0000 C   0  0  0  0  0  0  0  0  0
    1.1336   -1.9829    0.0000 C   0  0  0  0  0  0  0  0  0
    0.4191   -2.3954    0.0000 C   0  0  0  0  0  0  0  0  0
   -0.2953   -1.9829    0.0000 C   0  0  0  0  0  0  0  0  0
   -0.2953   -1.1579    0.0000 C   0  0  0  0  0  0  0  0  0
   -1.0098   -0.7454    0.0000 N   0  0  0  0  0  0  0  0  0
   -1.7243   -1.1579    0.0000 C   0  0  0  0  0  0  0  0  0
   -2.4387   -0.7454    0.0000 C   0  0  0  0  0  0  0  0  0
   -2.4387    0.0796    0.0000 C   0  0  0  0  0  0  0  0  0
   -3.1532    0.4921    0.0000 C   0  0  0  0  0  0  0  0  0
   -3.8677    0.0796    0.0000 C   0  0  0  0  0  0  0  0  0
   -3.8677   -0.7454    0.0000 C   0  0  0  0  0  0  0  0  0
   -3.1532   -1.1579    0.0000 C   0  0  0  0  0  0  0  0  0
   -3.1532   -1.9829    0.0000 O   0  0  0  0  0  0  0  0  0
   -3.8677   -2.3954    0.0000 C   0  0  0  0  0  0  0  0  0
   -1.0098    0.0796    0.0000 C   0  0  0  0  0  0  0  0  0
   -1.7243    0.4921    0.0000 O   0  0  0  0  0  0  0  0  0
   -0.2953    0.4921    0.0000 C   0  0  0  0  0  0  0  0  0
    1.1336    0.4921    0.0000 C   0  0  0  0  0  0  0  0  0
    1.1336    1.3171    0.0000 C   0  0  0  0  0  0  0  0  0
    1.8481    1.7296    0.0000 C   0  0  0  0  0  0  0  0  0
    2.5626    1.3171    0.0000 C   0  0  0  0  0  0  0  0  0
    2.5626    0.4921    0.0000 C   0  0  0  0  0  0  0  0  0
    1.8481    0.0796    0.0000 C   0  0  0  0  0  0  0  0  0
  1  2  1  0  0  0  0
  1 21  1  0  0  0  0
  2  3  4  0  0  0  0
  2  7  4  0  0  0  0
  3  4  4  0  0  0  0
  4  5  4  0  0  0  0
  5  6  4  0  0  0  0
  6  7  4  0  0  0  0
  7  8  1  0  0  0  0
  8  9  1  0  0  0  0
  8 18  1  0  0  0  0
  9 10  1  0  0  0  0
 10 11  4  0  0  0  0
 10 15  4  0  0  0  0
 11 12  4  0  0  0  0
 12 13  4  0  0  0  0
 13 14  4  0  0  0  0
 14 15  4  0  0  0  0
 15 16  1  0  0  0  0
 16 17  1  0  0  0  0
 18 19  2  0  0  0  0
 18 20  1  0  0  0  0
 21 22  4  0  0  0  0
 21 26  4  0  0  0  0
 22 23  4  0  0  0  0
 23 24  4  0  0  0  0
 24 25  4  0  0  0  0
 25 26  4  0  0  0  0
M  END
>  <Name_Molregno>
PBR28

>  <5-HT1A>
5

>  <5-HT1B>
5

>  <5-HT1D>
5

>  <5-HT1E>
5

>  <5-HT2A>
5

>  <5-HT3>
5

>  <5-HT5>
5

>  <5-HT6>
5

>  <5-HT7>
5

>  <Alpha-1A>
5

>  <Alpha-1B>
5

>  <Alpha-2A>
5

>  <Alpha-2B>
5

>  <Alpha-2C>
5

>  <Beta-1>
5

>  <Beta-2>
5

>  <DOPAMINE D1>
5

>  <DOPAMINE D2>
5

>  <DOPAMINE D4>
5

>  <Dopamine transporter>
5

>  <HISTAMINE H1>
5

>  <HISTAMINE H2>
5

>  <HISTAMINE H4>
5

>  <Muscarinic acetylcholine receptor M2>
5

>  <Muscarinic acetylcholine receptor M5>
5

>  <Norepinephrine transporter>
5

>  <Serotonin transporter>
5

$$$$
PERGOLIDE
  Marvin  02231216192D 0   1.00000     0.00000     0

 22 25  0  0  1  0  0  0  0  0999 V2000
    2.3775   -0.9399    0.0000 S   0  0  0  0  0  0  0  0  0
    1.6635   -0.5265    0.0000 C   0  0  0  0  0  0  0  0  0
    1.6645    0.2985    0.0000 C   0  0  0  0  0  0  0  0  0
    2.3795    0.7101    0.0000 C   0  0  0  0  0  0  0  0  0
    2.3805    1.5351    0.0000 C   0  0  0  0  0  0  0  0  0
    1.6665    1.9485    0.0000 C   0  0  0  0  0  0  0  0  0
    0.9515    1.5368    0.0000 N   0  0  0  0  0  0  0  0  0
    0.9505    0.7118    0.0000 C   0  0  0  0  0  0  0  0  0
    0.2376    1.9502    0.0000 C   0  0  0  0  0  0  0  0  0
   -0.4774    1.5385    0.0000 C   0  0  0  0  0  0  0  0  0
   -1.1914    1.9519    0.0000 C   0  0  0  0  0  0  0  0  0
    1.6680    2.7726    0.0000 C   0  0  0  0  0  0  0  0  0
    2.3805    3.1851    0.0000 C   0  0  0  0  0  0  0  0  0
    3.0930    2.7726    0.0000 C   0  0  0  0  0  0  0  0  0
    3.0930    1.9476    0.0000 C   0  0  0  0  0  0  0  0  0
    3.8108    1.5351    0.0000 C   0  0  0  0  0  0  0  0  0
    4.5233    1.9476    0.0000 C   0  0  0  0  0  0  0  0  0
    4.5233    2.7726    0.0000 C   0  0  0  0  0  0  0  0  0
    3.8108    3.1851    0.0000 C   0  0  0  0  0  0  0  0  0
    3.5055    4.0422    0.0000 N   0  0  0  0  0  0  0  0  0
    2.6805    4.0422    0.0000 C   0  0  0  0  0  0  0  0  0
    2.3765   -1.7649    0.0000 C   0  0  0  0  0  0  0  0  0
  1  2  1  0  0  0  0
  1 22  1  0  0  0  0
  2  3  1  0  0  0  0
  3  4  1  0  0  0  0
  3  8  1  0  0  0  0
  4  5  1  0  0  0  0
  5  6  1  0  0  0  0
  5 15  1  0  0  0  0
  6  7  1  0  0  0  0
  6 12  1  0  0  0  0
  7  8  1  0  0  0  0
  7  9  1  0  0  0  0
  9 10  1  0  0  0  0
 10 11  1  0  0  0  0
 12 13  1  0  0  0  0
 13 14  4  0  0  0  0
 13 21  4  0  0  0  0
 14 15  4  0  0  0  0
 14 19  4  0  0  0  0
 15 16  4  0  0  0  0
 16 17  4  0  0  0  0
 17 18  4  0  0  0  0
 18 19  4  0  0  0  0
 19 20  4  0  0  0  0
 20 21  4  0  0  0  0
M  STY  1   1 DAT
M  SAL   1  1  20
M  SDT   1 MRV_IMPLICIT_H                                        
M  SDD   1     0.0000    0.0000    DR    ALL  0       0  
M  SED   1 IMPL_H1
M  END
>  <Name_Molregno>
PERGOLIDE

>  <5-HT1A>
8.56

>  <5-HT1B>
6.55

>  <5-HT1D>
7.88

>  <5-HT2A>
8.08

>  <5-HT2C>
6.53

>  <Alpha-1A>
5.98

>  <Alpha-1B>
6.16

>  <Alpha-2A>
7.3

>  <Alpha-2B>
7.49

>  <Alpha-2C>
7.17

>  <Beta-1>
5

>  <Beta-2>
5

>  <DOPAMINE D1>
6.17

>  <DOPAMINE D2>
7.8

>  <DOPAMINE D3>
8.59

>  <DOPAMINE D4>
7.25

>  <DOPAMINE D5>
6.76

$$$$
Perospirone
  Marvin  02231216192D 0   1.00000     0.00000     0

 30 34  0  0  1  0  0  0  0  0999 V2000
    5.4657    2.8518    0.0000 S   0  0  0  0  0  0  0  0  0
    4.9808    2.1844    0.0000 N   0  0  0  0  0  0  0  0  0
    5.4657    1.5170    0.0000 C   0  0  0  0  0  0  0  0  0
    5.2108    0.7323    0.0000 N   0  0  0  0  0  0  0  0  0
    5.7628    0.1192    0.0000 C   0  0  0  0  0  0  0  0  0
    5.5079   -0.6654    0.0000 C   0  0  0  0  0  0  0  0  0
    4.7009   -0.8369    0.0000 N   0  0  0  0  0  0  0  0  0
    4.1489   -0.2238    0.0000 C   0  0  0  0  0  0  0  0  0
    4.4038    0.5608    0.0000 C   0  0  0  0  0  0  0  0  0
    4.4460   -1.6215    0.0000 C   0  0  0  0  0  0  0  0  0
    3.6390   -1.7931    0.0000 C   0  0  0  0  0  0  0  0  0
    3.3840   -2.5777    0.0000 C   0  0  0  0  0  0  0  0  0
    2.5771   -2.7492    0.0000 C   0  0  0  0  0  0  0  0  0
    2.3221   -3.5338    0.0000 N   0  0  0  0  0  0  0  0  0
    1.5375   -3.7888    0.0000 C   0  0  0  0  0  0  0  0  0
    0.8701   -3.3038    0.0000 O   0  0  0  0  0  0  0  0  0
    1.5375   -4.6138    0.0000 C   0  0  0  0  0  0  0  0  0
    2.3221   -4.8687    0.0000 C   0  0  0  0  0  0  0  0  0
    2.4937   -5.6757    0.0000 C   0  0  0  0  0  0  0  0  0
    1.8806   -6.2277    0.0000 C   0  0  0  0  0  0  0  0  0
    1.0959   -5.9728    0.0000 C   0  0  0  0  0  0  0  0  0
    0.9244   -5.1658    0.0000 C   0  0  0  0  0  0  0  0  0
    2.8071   -4.2013    0.0000 C   0  0  0  0  0  0  0  0  0
    3.6321   -4.2013    0.0000 O   0  0  0  0  0  0  0  0  0
    6.2503    1.7719    0.0000 C   0  0  0  0  0  0  0  0  0
    6.2503    2.5969    0.0000 C   0  0  0  0  0  0  0  0  0
    6.9648    3.0094    0.0000 C   0  0  0  0  0  0  0  0  0
    7.6793    2.5969    0.0000 C   0  0  0  0  0  0  0  0  0
    7.6793    1.7719    0.0000 C   0  0  0  0  0  0  0  0  0
    6.9648    1.3594    0.0000 C   0  0  0  0  0  0  0  0  0
  1  2  4  0  0  0  0
  1 26  4  0  0  0  0
  2  3  4  0  0  0  0
  3  4  1  0  0  0  0
  3 25  4  0  0  0  0
  4  5  1  0  0  0  0
  4  9  1  0  0  0  0
  5  6  1  0  0  0  0
  6  7  1  0  0  0  0
  7  8  1  0  0  0  0
  7 10  1  0  0  0  0
  8  9  1  0  0  0  0
 10 11  1  0  0  0  0
 11 12  1  0  0  0  0
 12 13  1  0  0  0  0
 13 14  1  0  0  0  0
 14 15  1  0  0  0  0
 14 23  1  0  0  0  0
 15 16  2  0  0  0  0
 15 17  1  0  0  0  0
 17 18  1  0  0  0  0
 17 22  1  0  0  0  0
 18 19  1  0  0  0  0
 18 23  1  0  0  0  0
 19 20  1  0  0  0  0
 20 21  1  0  0  0  0
 21 22  1  0  0  0  0
 23 24  2  0  0  0  0
 25 26  4  0  0  0  0
 25 30  4  0  0  0  0
 26 27  4  0  0  0  0
 27 28  4  0  0  0  0
 28 29  4  0  0  0  0
 29 30  4  0  0  0  0
M  END
>  <Name_Molregno>
Perospirone

>  <DOPAMINE D2>
9.22

>  <DOPAMINE D4>
10.05

$$$$
PERPHENAZINE
  Marvin  02231216192D 0   1.00000     0.00000     0

 27 30  0  0  0  0  0  0  0  0999 V2000
   -5.2850   -0.3290    0.0000 Cl  0  0  0  0  0  0  0  0  0
   -4.5705    0.0835    0.0000 C   0  0  0  0  0  0  0  0  0
   -3.8561   -0.3290    0.0000 C   0  0  0  0  0  0  0  0  0
   -3.1416    0.0835    0.0000 C   0  0  0  0  0  0  0  0  0
   -2.4271   -0.3290    0.0000 N   0  0  0  0  0  0  0  0  0
   -1.7126    0.0835    0.0000 C   0  0  0  0  0  0  0  0  0
   -1.7126    0.9085    0.0000 C   0  0  0  0  0  0  0  0  0
   -2.4271    1.3210    0.0000 S   0  0  0  0  0  0  0  0  0
   -3.1416    0.9085    0.0000 C   0  0  0  0  0  0  0  0  0
   -3.8561    1.3210    0.0000 C   0  0  0  0  0  0  0  0  0
   -4.5705    0.9085    0.0000 C   0  0  0  0  0  0  0  0  0
   -0.9982    1.3210    0.0000 C   0  0  0  0  0  0  0  0  0
   -0.2837    0.9085    0.0000 C   0  0  0  0  0  0  0  0  0
   -0.2837    0.0835    0.0000 C   0  0  0  0  0  0  0  0  0
   -0.9982   -0.3290    0.0000 C   0  0  0  0  0  0  0  0  0
   -2.4271   -1.1540    0.0000 C   0  0  0  0  0  0  0  0  0
   -3.1416   -1.5665    0.0000 C   0  0  0  0  0  0  0  0  0
   -3.1416   -2.3915    0.0000 C   0  0  0  0  0  0  0  0  0
   -3.8561   -2.8040    0.0000 N   0  0  0  0  0  0  0  0  0
   -3.8561   -3.6290    0.0000 C   0  0  0  0  0  0  0  0  0
   -4.5705   -4.0415    0.0000 C   0  0  0  0  0  0  0  0  0
   -5.2850   -3.6290    0.0000 N   0  0  0  0  0  0  0  0  0
   -5.2850   -2.8040    0.0000 C   0  0  0  0  0  0  0  0  0
   -4.5705   -2.3915    0.0000 C   0  0  0  0  0  0  0  0  0
   -5.9995   -4.0415    0.0000 C   0  0  0  0  0  0  0  0  0
   -6.7139   -3.6290    0.0000 C   0  0  0  0  0  0  0  0  0
   -7.4284   -4.0415    0.0000 O   0  0  0  0  0  0  0  0  0
  1  2  1  0  0  0  0
  2  3  4  0  0  0  0
  2 11  4  0  0  0  0
  3  4  4  0  0  0  0
  4  5  1  0  0  0  0
  4  9  4  0  0  0  0
  5  6  1  0  0  0  0
  5 16  1  0  0  0  0
  6  7  4  0  0  0  0
  6 15  4  0  0  0  0
  7  8  1  0  0  0  0
  7 12  4  0  0  0  0
  8  9  1  0  0  0  0
  9 10  4  0  0  0  0
 10 11  4  0  0  0  0
 12 13  4  0  0  0  0
 13 14  4  0  0  0  0
 14 15  4  0  0  0  0
 16 17  1  0  0  0  0
 17 18  1  0  0  0  0
 18 19  1  0  0  0  0
 19 20  1  0  0  0  0
 19 24  1  0  0  0  0
 20 21  1  0  0  0  0
 21 22  1  0  0  0  0
 22 23  1  0  0  0  0
 22 25  1  0  0  0  0
 23 24  1  0  0  0  0
 25 26  1  0  0  0  0
 26 27  1  0  0  0  0
M  END
>  <Name_Molregno>
PERPHENAZINE

>  <5-HT1A>
6.38

>  <5-HT2A>
8.25

>  <5-HT2C>
6.88

>  <5-HT6>
7.77

>  <5-HT7>
7.64

>  <Alpha-1A>
8

>  <Alpha-2A>
6.09

>  <Alpha-2B>
6.98

>  <Alpha-2C>
7.07

>  <DOPAMINE D2>
9.26

>  <DOPAMINE D3>
9.52

>  <DOPAMINE D4>
7.59

>  <HISTAMINE H1>
8.09

>  <Muscarinic acetylcholine receptor M3>
5.73

$$$$
PIMOZIDE
  Marvin  02231216192D 0   1.00000     0.00000     0

 34 38  0  0  0  0  0  0  0  0999 V2000
    3.4878   -7.4849    0.0000 F   0  0  0  0  0  0  0  0  0
    3.7428   -6.7002    0.0000 C   0  0  0  0  0  0  0  0  0
    3.1908   -6.0871    0.0000 C   0  0  0  0  0  0  0  0  0
    3.4457   -5.3025    0.0000 C   0  0  0  0  0  0  0  0  0
    4.2527   -5.1310    0.0000 C   0  0  0  0  0  0  0  0  0
    4.8047   -5.7441    0.0000 C   0  0  0  0  0  0  0  0  0
    4.5498   -6.5287    0.0000 C   0  0  0  0  0  0  0  0  0
    4.5076   -4.3464    0.0000 C   0  0  0  0  0  0  0  0  0
    3.9556   -3.7333    0.0000 C   0  0  0  0  0  0  0  0  0
    4.2105   -2.9487    0.0000 C   0  0  0  0  0  0  0  0  0
    3.6585   -2.3356    0.0000 C   0  0  0  0  0  0  0  0  0
    3.9134   -1.5509    0.0000 N   0  0  0  0  0  0  0  0  0
    3.3614   -0.9378    0.0000 C   0  0  0  0  0  0  0  0  0
    3.6163   -0.1532    0.0000 C   0  0  0  0  0  0  0  0  0
    4.4233    0.0183    0.0000 C   0  0  0  0  0  0  0  0  0
    4.6782    0.8029    0.0000 N   0  0  0  0  0  0  0  0  0
    5.4629    1.0579    0.0000 C   0  0  0  0  0  0  0  0  0
    5.4629    1.8829    0.0000 C   0  0  0  0  0  0  0  0  0
    4.6782    2.1378    0.0000 N   0  0  0  0  0  0  0  0  0
    4.1933    1.4704    0.0000 C   0  0  0  0  0  0  0  0  0
    3.3683    1.4704    0.0000 O   0  0  0  0  0  0  0  0  0
    6.1773    2.2954    0.0000 C   0  0  0  0  0  0  0  0  0
    6.8918    1.8829    0.0000 C   0  0  0  0  0  0  0  0  0
    6.8918    1.0579    0.0000 C   0  0  0  0  0  0  0  0  0
    6.1773    0.6454    0.0000 C   0  0  0  0  0  0  0  0  0
    4.9753   -0.5948    0.0000 C   0  0  0  0  0  0  0  0  0
    4.7204   -1.3794    0.0000 C   0  0  0  0  0  0  0  0  0
    5.3146   -4.1748    0.0000 C   0  0  0  0  0  0  0  0  0
    5.5695   -3.3902    0.0000 C   0  0  0  0  0  0  0  0  0
    6.3765   -3.2187    0.0000 C   0  0  0  0  0  0  0  0  0
    6.9285   -3.8318    0.0000 C   0  0  0  0  0  0  0  0  0
    7.7355   -3.6603    0.0000 F   0  0  0  0  0  0  0  0  0
    6.6736   -4.6164    0.0000 C   0  0  0  0  0  0  0  0  0
    5.8666   -4.7879    0.0000 C   0  0  0  0  0  0  0  0  0
  1  2  1  0  0  0  0
  2  3  4  0  0  0  0
  2  7  4  0  0  0  0
  3  4  4  0  0  0  0
  4  5  4  0  0  0  0
  5  6  4  0  0  0  0
  5  8  1  0  0  0  0
  6  7  4  0  0  0  0
  8  9  1  0  0  0  0
  8 28  1  0  0  0  0
  9 10  1  0  0  0  0
 10 11  1  0  0  0  0
 11 12  1  0  0  0  0
 12 13  1  0  0  0  0
 12 27  1  0  0  0  0
 13 14  1  0  0  0  0
 14 15  1  0  0  0  0
 15 16  1  0  0  0  0
 15 26  1  0  0  0  0
 16 17  1  0  0  0  0
 16 20  1  0  0  0  0
 17 18  4  0  0  0  0
 17 25  4  0  0  0  0
 18 19  1  0  0  0  0
 18 22  4  0  0  0  0
 19 20  1  0  0  0  0
 20 21  2  0  0  0  0
 22 23  4  0  0  0  0
 23 24  4  0  0  0  0
 24 25  4  0  0  0  0
 26 27  1  0  0  0  0
 28 29  4  0  0  0  0
 28 34  4  0  0  0  0
 29 30  4  0  0  0  0
 30 31  4  0  0  0  0
 31 32  1  0  0  0  0
 31 33  4  0  0  0  0
 33 34  4  0  0  0  0
M  END
>  <Name_Molregno>
PIMOZIDE

>  <5-HT1A>
6.48

>  <5-HT1D>
5.51

>  <5-HT2A>
7.56

>  <5-HT2C>
5.92

>  <5-HT6>
7.15

>  <5-HT7>
9.3

>  <Alpha-1A>
6.7

>  <Alpha-2A>
5.8

>  <Alpha-2B>
6.09

>  <Alpha-2C>
6.42

>  <DOPAMINE D1>
5

>  <DOPAMINE D2>
8.86

>  <DOPAMINE D3>
9.05

>  <DOPAMINE D4>
8.74

>  <HISTAMINE H1>
6.88

>  <Muscarinic acetylcholine receptor M3>
5.71

$$$$
PIPAMPERONE
  Marvin  02231216192D 0   1.00000     0.00000     0

 27 29  0  0  0  0  0  0  0  0999 V2000
    0.0224    0.7508    0.0000 F   0  0  0  0  0  0  0  0  0
    0.7369    0.3383    0.0000 C   0  0  0  0  0  0  0  0  0
    1.4513    0.7508    0.0000 C   0  0  0  0  0  0  0  0  0
    2.1658    0.3383    0.0000 C   0  0  0  0  0  0  0  0  0
    2.1658   -0.4867    0.0000 C   0  0  0  0  0  0  0  0  0
    1.4513   -0.8992    0.0000 C   0  0  0  0  0  0  0  0  0
    0.7369   -0.4867    0.0000 C   0  0  0  0  0  0  0  0  0
    2.8803   -0.8992    0.0000 C   0  0  0  0  0  0  0  0  0
    2.8803   -1.7242    0.0000 O   0  0  0  0  0  0  0  0  0
    3.5947   -0.4867    0.0000 C   0  0  0  0  0  0  0  0  0
    4.3092   -0.8992    0.0000 C   0  0  0  0  0  0  0  0  0
    5.0237   -0.4867    0.0000 C   0  0  0  0  0  0  0  0  0
    5.7382   -0.8992    0.0000 N   0  0  0  0  0  0  0  0  0
    6.4526   -0.4867    0.0000 C   0  0  0  0  0  0  0  0  0
    7.1671   -0.8992    0.0000 C   0  0  0  0  0  0  0  0  0
    7.1671   -1.7242    0.0000 C   0  0  0  0  0  0  0  0  0
    7.9796   -1.5809    0.0000 N   0  0  0  0  0  0  0  0  0
    8.2617   -0.8057    0.0000 C   0  0  0  0  0  0  0  0  0
    9.0742   -0.6624    0.0000 C   0  0  0  0  0  0  0  0  0
    9.6045   -1.2944    0.0000 C   0  0  0  0  0  0  0  0  0
    9.3223   -2.0696    0.0000 C   0  0  0  0  0  0  0  0  0
    8.5099   -2.2129    0.0000 C   0  0  0  0  0  0  0  0  0
    6.4526   -2.1367    0.0000 C   0  0  0  0  0  0  0  0  0
    5.7382   -1.7242    0.0000 C   0  0  0  0  0  0  0  0  0
    7.4493   -2.4994    0.0000 C   0  0  0  0  0  0  0  0  0
    6.9190   -3.1314    0.0000 O   0  0  0  0  0  0  0  0  0
    8.2617   -2.6427    0.0000 N   0  0  0  0  0  0  0  0  0
  1  2  1  0  0  0  0
  2  3  4  0  0  0  0
  2  7  4  0  0  0  0
  3  4  4  0  0  0  0
  4  5  4  0  0  0  0
  5  6  4  0  0  0  0
  5  8  1  0  0  0  0
  6  7  4  0  0  0  0
  8  9  2  0  0  0  0
  8 10  1  0  0  0  0
 10 11  1  0  0  0  0
 11 12  1  0  0  0  0
 12 13  1  0  0  0  0
 13 14  1  0  0  0  0
 13 24  1  0  0  0  0
 14 15  1  0  0  0  0
 15 16  1  0  0  0  0
 16 17  1  0  0  0  0
 16 23  1  0  0  0  0
 16 25  1  0  0  0  0
 17 18  1  0  0  0  0
 17 22  1  0  0  0  0
 18 19  1  0  0  0  0
 19 20  1  0  0  0  0
 20 21  1  0  0  0  0
 21 22  1  0  0  0  0
 23 24  1  0  0  0  0
 25 26  2  0  0  0  0
 25 27  1  0  0  0  0
M  END
>  <Name_Molregno>
PIPAMPERONE

>  <5-HT1A>
5.56

>  <5-HT1B>
6.8

>  <5-HT1D>
6.19

>  <5-HT1E>
5.3

>  <5-HT2A>
8.21

>  <5-HT2C>
6.64

>  <Alpha-2A>
6.07

>  <Alpha-2B>
7.46

>  <Alpha-2C>
6.54

>  <Beta-1>
5.3

>  <Beta-2>
5.3

>  <DOPAMINE D2>
6.94

>  <DOPAMINE D3>
6.6

>  <DOPAMINE D4>
8.29

>  <HISTAMINE H1>
5.62

>  <Serotonin transporter>
6

$$$$
Piribedil
  Marvin  02231216192D 0   1.00000     0.00000     0

 22 25  0  0  0  0  0  0  0  0999 V2000
   -6.9931    0.7446    0.0000 O   0  0  0  0  0  0  0  0  0
   -6.2084    0.4897    0.0000 C   0  0  0  0  0  0  0  0  0
   -5.4940    0.9022    0.0000 C   0  0  0  0  0  0  0  0  0
   -4.7795    0.4897    0.0000 C   0  0  0  0  0  0  0  0  0
   -4.7795   -0.3353    0.0000 C   0  0  0  0  0  0  0  0  0
   -5.4940   -0.7478    0.0000 C   0  0  0  0  0  0  0  0  0
   -6.2084   -0.3353    0.0000 C   0  0  0  0  0  0  0  0  0
   -6.9931   -0.5902    0.0000 O   0  0  0  0  0  0  0  0  0
   -7.4780    0.0772    0.0000 C   0  0  0  0  0  0  0  0  0
   -4.0650    0.9022    0.0000 C   0  0  0  0  0  0  0  0  0
   -3.3506    0.4897    0.0000 N   0  0  0  0  0  0  0  0  0
   -2.6361    0.9022    0.0000 C   0  0  0  0  0  0  0  0  0
   -1.9216    0.4897    0.0000 C   0  0  0  0  0  0  0  0  0
   -1.9216   -0.3353    0.0000 N   0  0  0  0  0  0  0  0  0
   -2.6361   -0.7478    0.0000 C   0  0  0  0  0  0  0  0  0
   -3.3506   -0.3353    0.0000 C   0  0  0  0  0  0  0  0  0
   -1.2071   -0.7478    0.0000 C   0  0  0  0  0  0  0  0  0
   -0.4927   -0.3353    0.0000 N   0  0  0  0  0  0  0  0  0
    0.2218   -0.7478    0.0000 C   0  0  0  0  0  0  0  0  0
    0.2218   -1.5728    0.0000 C   0  0  0  0  0  0  0  0  0
   -0.4927   -1.9853    0.0000 C   0  0  0  0  0  0  0  0  0
   -1.2071   -1.5728    0.0000 N   0  0  0  0  0  0  0  0  0
  1  2  1  0  0  0  0
  1  9  1  0  0  0  0
  2  3  4  0  0  0  0
  2  7  4  0  0  0  0
  3  4  4  0  0  0  0
  4  5  4  0  0  0  0
  4 10  1  0  0  0  0
  5  6  4  0  0  0  0
  6  7  4  0  0  0  0
  7  8  1  0  0  0  0
  8  9  1  0  0  0  0
 10 11  1  0  0  0  0
 11 12  1  0  0  0  0
 11 16  1  0  0  0  0
 12 13  1  0  0  0  0
 13 14  1  0  0  0  0
 14 15  1  0  0  0  0
 14 17  1  0  0  0  0
 15 16  1  0  0  0  0
 17 18  4  0  0  0  0
 17 22  4  0  0  0  0
 18 19  4  0  0  0  0
 19 20  4  0  0  0  0
 20 21  4  0  0  0  0
 21 22  4  0  0  0  0
M  END
>  <Name_Molregno>
Piribedil

>  <5-HT1A>
6.35

>  <5-HT1B>
5

>  <5-HT1D>
5

>  <5-HT2A>
5

>  <5-HT2C>
5

>  <Alpha-1A>
6.09

>  <Alpha-1B>
5.21

>  <Alpha-2A>
7.05

>  <Alpha-2B>
6.54

>  <Alpha-2C>
7.16

>  <Beta-1>
5

>  <Beta-2>
5

>  <DOPAMINE D1>
5

>  <DOPAMINE D2>
6.88

>  <DOPAMINE D3>
6.63

>  <DOPAMINE D4>
6.51

>  <DOPAMINE D5>
5

>  <Norepinephrine transporter>
5

$$$$
Piroxicam
  Marvin  02231216192D 0   1.00000     0.00000     0

 23 25  0  0  0  0  0  0  0  0999 V2000
    2.3267    1.3854    0.0000 S   0  0  0  0  0  0  0  0  0
    1.7964    2.0174    0.0000 O   0  0  0  0  0  0  0  0  0
    2.8570    2.0174    0.0000 O   0  0  0  0  0  0  0  0  0
    1.6123    0.9729    0.0000 N   0  0  0  0  0  0  0  0  0
    0.8978    1.3854    0.0000 C   0  0  0  0  0  0  0  0  0
    1.6123    0.1479    0.0000 C   0  0  0  0  0  0  0  0  0
    0.8978   -0.2646    0.0000 C   0  0  0  0  0  0  0  0  0
    0.1833    0.1479    0.0000 O   0  0  0  0  0  0  0  0  0
    0.8978   -1.0896    0.0000 N   0  0  0  0  0  0  0  0  0
    0.1833   -1.5021    0.0000 C   0  0  0  0  0  0  0  0  0
    0.1833   -2.3271    0.0000 N   0  0  0  0  0  0  0  0  0
   -0.5311   -2.7396    0.0000 C   0  0  0  0  0  0  0  0  0
   -1.2456   -2.3271    0.0000 C   0  0  0  0  0  0  0  0  0
   -1.2456   -1.5021    0.0000 C   0  0  0  0  0  0  0  0  0
   -0.5311   -1.0896    0.0000 C   0  0  0  0  0  0  0  0  0
    2.3267   -0.2646    0.0000 C   0  0  0  0  0  0  0  0  0
    2.3267   -1.0896    0.0000 O   0  0  0  0  0  0  0  0  0
    3.0412    0.1479    0.0000 C   0  0  0  0  0  0  0  0  0
    3.0412    0.9729    0.0000 C   0  0  0  0  0  0  0  0  0
    3.7557    1.3854    0.0000 C   0  0  0  0  0  0  0  0  0
    4.4702    0.9729    0.0000 C   0  0  0  0  0  0  0  0  0
    4.4702    0.1479    0.0000 C   0  0  0  0  0  0  0  0  0
    3.7557   -0.2646    0.0000 C   0  0  0  0  0  0  0  0  0
  1  2  2  0  0  0  0
  1  3  2  0  0  0  0
  1  4  1  0  0  0  0
  1 19  1  0  0  0  0
  4  5  1  0  0  0  0
  4  6  1  0  0  0  0
  6  7  2  0  0  0  0
  6 16  1  0  0  0  0
  7  8  1  0  0  0  0
  7  9  1  0  0  0  0
  9 10  1  0  0  0  0
 10 11  4  0  0  0  0
 10 15  4  0  0  0  0
 11 12  4  0  0  0  0
 12 13  4  0  0  0  0
 13 14  4  0  0  0  0
 14 15  4  0  0  0  0
 16 17  2  0  0  0  0
 16 18  1  0  0  0  0
 18 19  4  0  0  0  0
 18 23  4  0  0  0  0
 19 20  4  0  0  0  0
 20 21  4  0  0  0  0
 21 22  4  0  0  0  0
 22 23  4  0  0  0  0
M  END
>  <Name_Molregno>
Piroxicam

>  <5-HT1A>
5

>  <5-HT1B>
5

>  <5-HT1D>
5

>  <5-HT1E>
5

>  <5-HT2A>
5

>  <5-HT3>
5

>  <5-HT5>
5

>  <5-HT6>
5

>  <Alpha-1A>
5

>  <Alpha-1B>
5

>  <Alpha-2A>
5

>  <Alpha-2B>
5

>  <Alpha-2C>
5

>  <DOPAMINE D1>
5

>  <DOPAMINE D2>
5

>  <DOPAMINE D4>
5

>  <DOPAMINE D5>
5

>  <Dopamine transporter>
5

>  <HISTAMINE H1>
5

>  <HISTAMINE H2>
5

>  <Muscarinic acetylcholine receptor M2>
5

>  <Muscarinic acetylcholine receptor M5>
5

>  <Norepinephrine transporter>
5

>  <Serotonin transporter>
5

$$$$
PROCHLORPERAZINE
  Marvin  02231216192D 0   1.00000     0.00000     0

 25 28  0  0  0  0  0  0  0  0999 V2000
   -5.2156   -0.6691    0.0000 Cl  0  0  0  0  0  0  0  0  0
   -4.5011   -0.2566    0.0000 C   0  0  0  0  0  0  0  0  0
   -3.7866   -0.6691    0.0000 C   0  0  0  0  0  0  0  0  0
   -3.0722   -0.2566    0.0000 C   0  0  0  0  0  0  0  0  0
   -2.3577   -0.6691    0.0000 N   0  0  0  0  0  0  0  0  0
   -1.6432   -0.2566    0.0000 C   0  0  0  0  0  0  0  0  0
   -1.6432    0.5684    0.0000 C   0  0  0  0  0  0  0  0  0
   -2.3577    0.9809    0.0000 S   0  0  0  0  0  0  0  0  0
   -3.0722    0.5684    0.0000 C   0  0  0  0  0  0  0  0  0
   -3.7866    0.9809    0.0000 C   0  0  0  0  0  0  0  0  0
   -4.5011    0.5684    0.0000 C   0  0  0  0  0  0  0  0  0
   -0.9287    0.9809    0.0000 C   0  0  0  0  0  0  0  0  0
   -0.2143    0.5684    0.0000 C   0  0  0  0  0  0  0  0  0
   -0.2143   -0.2566    0.0000 C   0  0  0  0  0  0  0  0  0
   -0.9287   -0.6691    0.0000 C   0  0  0  0  0  0  0  0  0
   -2.3577   -1.4941    0.0000 C   0  0  0  0  0  0  0  0  0
   -3.0722   -1.9066    0.0000 C   0  0  0  0  0  0  0  0  0
   -3.0722   -2.7316    0.0000 C   0  0  0  0  0  0  0  0  0
   -3.7866   -3.1441    0.0000 N   0  0  0  0  0  0  0  0  0
   -3.7866   -3.9691    0.0000 C   0  0  0  0  0  0  0  0  0
   -4.5011   -4.3816    0.0000 C   0  0  0  0  0  0  0  0  0
   -5.2156   -3.9691    0.0000 N   0  0  0  0  0  0  0  0  0
   -5.2156   -3.1441    0.0000 C   0  0  0  0  0  0  0  0  0
   -4.5011   -2.7316    0.0000 C   0  0  0  0  0  0  0  0  0
   -5.9300   -4.3816    0.0000 C   0  0  0  0  0  0  0  0  0
  1  2  1  0  0  0  0
  2  3  4  0  0  0  0
  2 11  4  0  0  0  0
  3  4  4  0  0  0  0
  4  5  1  0  0  0  0
  4  9  4  0  0  0  0
  5  6  1  0  0  0  0
  5 16  1  0  0  0  0
  6  7  4  0  0  0  0
  6 15  4  0  0  0  0
  7  8  1  0  0  0  0
  7 12  4  0  0  0  0
  8  9  1  0  0  0  0
  9 10  4  0  0  0  0
 10 11  4  0  0  0  0
 12 13  4  0  0  0  0
 13 14  4  0  0  0  0
 14 15  4  0  0  0  0
 16 17  1  0  0  0  0
 17 18  1  0  0  0  0
 18 19  1  0  0  0  0
 19 20  1  0  0  0  0
 19 24  1  0  0  0  0
 20 21  1  0  0  0  0
 21 22  1  0  0  0  0
 22 23  1  0  0  0  0
 22 25  1  0  0  0  0
 23 24  1  0  0  0  0
M  END
>  <Name_Molregno>
PROCHLORPERAZINE

>  <5-HT1A>
5.23

>  <5-HT2A>
7.82

>  <5-HT2C>
6.91

>  <DOPAMINE D2>
8.76

>  <DOPAMINE D3>
8.61

>  <DOPAMINE D4>
7.3

>  <HISTAMINE H1>
7.72

$$$$
Prucalopride
  Marvin  02231216192D 0   1.00000     0.00000     0

 25 27  0  0  0  0  0  0  0  0999 V2000
   -0.3739   -1.3965    0.0000 Cl  0  0  0  0  0  0  0  0  0
    0.3406   -1.8090    0.0000 C   0  0  0  0  0  0  0  0  0
    1.0551   -1.3965    0.0000 C   0  0  0  0  0  0  0  0  0
    1.7696   -1.8090    0.0000 C   0  0  0  0  0  0  0  0  0
    1.7696   -2.6340    0.0000 C   0  0  0  0  0  0  0  0  0
    2.3827   -3.1861    0.0000 O   0  0  0  0  0  0  0  0  0
    2.0471   -3.9397    0.0000 C   0  0  0  0  0  0  0  0  0
    1.2266   -3.8535    0.0000 C   0  0  0  0  0  0  0  0  0
    1.0551   -3.0465    0.0000 C   0  0  0  0  0  0  0  0  0
    0.3406   -2.6340    0.0000 C   0  0  0  0  0  0  0  0  0
   -0.3739   -3.0465    0.0000 N   0  0  0  0  0  0  0  0  0
    2.4840   -1.3965    0.0000 C   0  0  0  0  0  0  0  0  0
    3.1985   -1.8090    0.0000 O   0  0  0  0  0  0  0  0  0
    2.4840   -0.5715    0.0000 N   0  0  0  0  0  0  0  0  0
    3.1985   -0.1590    0.0000 C   0  0  0  0  0  0  0  0  0
    3.1985    0.6660    0.0000 C   0  0  0  0  0  0  0  0  0
    3.9130    1.0785    0.0000 C   0  0  0  0  0  0  0  0  0
    4.6274    0.6660    0.0000 N   0  0  0  0  0  0  0  0  0
    4.6274   -0.1590    0.0000 C   0  0  0  0  0  0  0  0  0
    3.9130   -0.5715    0.0000 C   0  0  0  0  0  0  0  0  0
    5.3419    1.0785    0.0000 C   0  0  0  0  0  0  0  0  0
    6.0564    0.6660    0.0000 C   0  0  0  0  0  0  0  0  0
    6.7709    1.0785    0.0000 C   0  0  0  0  0  0  0  0  0
    7.4853    0.6660    0.0000 O   0  0  0  0  0  0  0  0  0
    8.1998    1.0785    0.0000 C   0  0  0  0  0  0  0  0  0
  1  2  1  0  0  0  0
  2  3  4  0  0  0  0
  2 10  4  0  0  0  0
  3  4  4  0  0  0  0
  4  5  4  0  0  0  0
  4 12  1  0  0  0  0
  5  6  1  0  0  0  0
  5  9  4  0  0  0  0
  6  7  1  0  0  0  0
  7  8  1  0  0  0  0
  8  9  1  0  0  0  0
  9 10  4  0  0  0  0
 10 11  1  0  0  0  0
 12 13  2  0  0  0  0
 12 14  1  0  0  0  0
 14 15  1  0  0  0  0
 15 16  1  0  0  0  0
 15 20  1  0  0  0  0
 16 17  1  0  0  0  0
 17 18  1  0  0  0  0
 18 19  1  0  0  0  0
 18 21  1  0  0  0  0
 19 20  1  0  0  0  0
 21 22  1  0  0  0  0
 22 23  1  0  0  0  0
 23 24  1  0  0  0  0
 24 25  1  0  0  0  0
M  END
>  <Name_Molregno>
Prucalopride

>  <5-HT1A>
5

>  <5-HT1B>
5

>  <5-HT1D>
5

>  <5-HT1E>
5

>  <5-HT2A>
5

>  <5-HT2C>
5

>  <5-HT5>
5

>  <5-HT6>
5

>  <5-HT7>
5

>  <Alpha-2A>
5

>  <Alpha-2B>
5

>  <Alpha-2C>
5

>  <Beta-1>
5

>  <Beta-2>
5

>  <DOPAMINE D2>
5

>  <DOPAMINE D3>
5

>  <DOPAMINE D4>
5.63

>  <HISTAMINE H1>
5

>  <Serotonin transporter>
5

$$$$
PSILOCIN
  Marvin  02231216192D 0   1.00000     0.00000     0

 15 16  0  0  0  0  0  0  0  0999 V2000
    1.2794   -2.2041    0.0000 O   0  0  0  0  0  0  0  0  0
    1.2794   -1.3791    0.0000 C   0  0  0  0  0  0  0  0  0
    0.5650   -0.9666    0.0000 C   0  0  0  0  0  0  0  0  0
    0.5650   -0.1416    0.0000 C   0  0  0  0  0  0  0  0  0
   -0.2197    0.1134    0.0000 N   0  0  0  0  0  0  0  0  0
   -0.7046   -0.5541    0.0000 C   0  0  0  0  0  0  0  0  0
   -0.2197   -1.2215    0.0000 C   0  0  0  0  0  0  0  0  0
   -0.4746   -2.0061    0.0000 C   0  0  0  0  0  0  0  0  0
   -1.2816   -2.1777    0.0000 C   0  0  0  0  0  0  0  0  0
   -1.5365   -2.9623    0.0000 N   0  0  0  0  0  0  0  0  0
   -2.3435   -3.1338    0.0000 C   0  0  0  0  0  0  0  0  0
   -0.9845   -3.5754    0.0000 C   0  0  0  0  0  0  0  0  0
    1.2794    0.2709    0.0000 C   0  0  0  0  0  0  0  0  0
    1.9939   -0.1416    0.0000 C   0  0  0  0  0  0  0  0  0
    1.9939   -0.9666    0.0000 C   0  0  0  0  0  0  0  0  0
  1  2  1  0  0  0  0
  2  3  4  0  0  0  0
  2 15  4  0  0  0  0
  3  4  4  0  0  0  0
  3  7  4  0  0  0  0
  4  5  4  0  0  0  0
  4 13  4  0  0  0  0
  5  6  4  0  0  0  0
  6  7  4  0  0  0  0
  7  8  1  0  0  0  0
  8  9  1  0  0  0  0
  9 10  1  0  0  0  0
 10 11  1  0  0  0  0
 10 12  1  0  0  0  0
 13 14  4  0  0  0  0
 14 15  4  0  0  0  0
M  STY  1   1 DAT
M  SAL   1  1   5
M  SDT   1 MRV_IMPLICIT_H                                        
M  SDD   1     0.0000    0.0000    DR    ALL  0       0  
M  SED   1 IMPL_H1
M  END
>  <Name_Molregno>
PSILOCIN

>  <5-HT1A>
6.78

>  <5-HT1B>
6.66

>  <5-HT1D>
7.44

>  <5-HT1E>
7.28

>  <5-HT2A>
6.97

>  <5-HT3>
5

>  <5-HT5>
7.08

>  <5-HT6>
7.24

>  <5-HT7>
8.46

>  <Alpha-1A>
5

>  <Alpha-1B>
5

>  <Alpha-2A>
5.86

>  <Alpha-2B>
5.72

>  <Alpha-2C>
5

>  <Beta-1>
5

>  <DOPAMINE D1>
5

>  <DOPAMINE D2>
5

>  <DOPAMINE D4>
5

>  <DOPAMINE D5>
5

>  <Dopamine transporter>
5

>  <HISTAMINE H1>
6.52

>  <HISTAMINE H2>
5

>  <HISTAMINE H4>
5

>  <Muscarinic acetylcholine receptor M2>
5

>  <Muscarinic acetylcholine receptor M5>
5

>  <Norepinephrine transporter>
5

>  <Serotonin transporter>
5.42

$$$$
PSILOCYBIN
  Marvin  02231216192D 0   1.00000     0.00000     0

 19 20  0  0  0  0  0  0  0  0999 V2000
    0.6946   -2.4480    0.0000 P   0  0  0  0  0  0  0  0  0
   -0.0199   -2.0355    0.0000 O   0  0  0  0  0  0  0  0  0
   -0.0199   -1.2105    0.0000 C   0  0  0  0  0  0  0  0  0
   -0.7343   -0.7980    0.0000 C   0  0  0  0  0  0  0  0  0
   -0.7343    0.0270    0.0000 C   0  0  0  0  0  0  0  0  0
   -1.5190    0.2819    0.0000 N   0  0  0  0  0  0  0  0  0
   -2.0039   -0.3855    0.0000 C   0  0  0  0  0  0  0  0  0
   -1.5190   -1.0530    0.0000 C   0  0  0  0  0  0  0  0  0
   -1.7739   -1.8376    0.0000 C   0  0  0  0  0  0  0  0  0
   -2.5809   -2.0091    0.0000 C   0  0  0  0  0  0  0  0  0
   -2.8358   -2.7937    0.0000 N   0  0  0  0  0  0  0  0  0
   -3.6428   -2.9653    0.0000 C   0  0  0  0  0  0  0  0  0
   -2.2838   -3.4068    0.0000 C   0  0  0  0  0  0  0  0  0
   -0.0199    0.4395    0.0000 C   0  0  0  0  0  0  0  0  0
    0.6946    0.0270    0.0000 C   0  0  0  0  0  0  0  0  0
    0.6946   -0.7980    0.0000 C   0  0  0  0  0  0  0  0  0
    1.4091   -2.8605    0.0000 O   0  0  0  0  0  0  0  0  0
    0.2821   -3.1625    0.0000 O   0  0  0  0  0  0  0  0  0
    1.1071   -1.7336    0.0000 O   0  0  0  0  0  0  0  0  0
  1  2  1  0  0  0  0
  1 17  2  0  0  0  0
  1 18  1  0  0  0  0
  1 19  1  0  0  0  0
  2  3  1  0  0  0  0
  3  4  4  0  0  0  0
  3 16  4  0  0  0  0
  4  5  4  0  0  0  0
  4  8  4  0  0  0  0
  5  6  4  0  0  0  0
  5 14  4  0  0  0  0
  6  7  4  0  0  0  0
  7  8  4  0  0  0  0
  8  9  1  0  0  0  0
  9 10  1  0  0  0  0
 10 11  1  0  0  0  0
 11 12  1  0  0  0  0
 11 13  1  0  0  0  0
 14 15  4  0  0  0  0
 15 16  4  0  0  0  0
M  STY  1   1 DAT
M  SAL   1  1   6
M  SDT   1 MRV_IMPLICIT_H                                        
M  SDD   1     0.0000    0.0000    DR    ALL  0       0  
M  SED   1 IMPL_H1
M  END
>  <Name_Molregno>
PSILOCYBIN

>  <5-HT1A>
5

>  <5-HT1B>
5

>  <5-HT1D>
5.67

>  <5-HT1E>
6.71

>  <5-HT2A>
5

>  <5-HT3>
5

>  <5-HT5>
5.21

>  <5-HT6>
6.38

>  <5-HT7>
6.22

>  <Alpha-1A>
5

>  <Alpha-1B>
5

>  <Alpha-2A>
5

>  <Alpha-2B>
5

>  <Alpha-2C>
5

>  <DOPAMINE D1>
5

>  <DOPAMINE D2>
5

>  <DOPAMINE D4>
5

>  <DOPAMINE D5>
5

>  <Dopamine transporter>
5

>  <HISTAMINE H1>
5

>  <HISTAMINE H2>
5

>  <HISTAMINE H4>
5

>  <Muscarinic acetylcholine receptor M2>
5

>  <Muscarinic acetylcholine receptor M5>
5

>  <Norepinephrine transporter>
5

>  <Serotonin transporter>
5

$$$$
QUETIAPINE
  Marvin  02231216192D 0   1.00000     0.00000     0

 27 30  0  0  0  0  0  0  0  0999 V2000
    0.4015    1.2563    0.0000 S   0  0  0  0  0  0  0  0  0
    1.2173    1.3793    0.0000 C   0  0  0  0  0  0  0  0  0
    1.8221    0.8181    0.0000 C   0  0  0  0  0  0  0  0  0
    2.6104    1.0613    0.0000 C   0  0  0  0  0  0  0  0  0
    2.7940    1.8656    0.0000 C   0  0  0  0  0  0  0  0  0
    2.1892    2.4268    0.0000 C   0  0  0  0  0  0  0  0  0
    1.4009    2.1836    0.0000 C   0  0  0  0  0  0  0  0  0
    1.7604   -0.0046    0.0000 C   0  0  0  0  0  0  0  0  0
    1.0788   -0.4693    0.0000 N   0  0  0  0  0  0  0  0  0
    0.2904   -0.2261    0.0000 C   0  0  0  0  0  0  0  0  0
   -0.0110    0.5418    0.0000 C   0  0  0  0  0  0  0  0  0
   -0.8268    0.6648    0.0000 C   0  0  0  0  0  0  0  0  0
   -1.3412    0.0198    0.0000 C   0  0  0  0  0  0  0  0  0
   -1.0398   -0.7482    0.0000 C   0  0  0  0  0  0  0  0  0
   -0.2240   -0.8711    0.0000 C   0  0  0  0  0  0  0  0  0
    2.4749   -0.4171    0.0000 N   0  0  0  0  0  0  0  0  0
    3.1893   -0.0046    0.0000 C   0  0  0  0  0  0  0  0  0
    3.9038   -0.4171    0.0000 C   0  0  0  0  0  0  0  0  0
    3.9038   -1.2421    0.0000 N   0  0  0  0  0  0  0  0  0
    3.1893   -1.6546    0.0000 C   0  0  0  0  0  0  0  0  0
    2.4749   -1.2421    0.0000 C   0  0  0  0  0  0  0  0  0
    4.6183   -1.6546    0.0000 C   0  0  0  0  0  0  0  0  0
    5.3328   -1.2421    0.0000 C   0  0  0  0  0  0  0  0  0
    6.0472   -1.6546    0.0000 O   0  0  0  0  0  0  0  0  0
    6.7617   -1.2421    0.0000 C   0  0  0  0  0  0  0  0  0
    7.4762   -1.6546    0.0000 C   0  0  0  0  0  0  0  0  0
    8.1906   -1.2421    0.0000 O   0  0  0  0  0  0  0  0  0
  1  2  1  0  0  0  0
  1 11  1  0  0  0  0
  2  3  4  0  0  0  0
  2  7  4  0  0  0  0
  3  4  4  0  0  0  0
  3  8  1  0  0  0  0
  4  5  4  0  0  0  0
  5  6  4  0  0  0  0
  6  7  4  0  0  0  0
  8  9  2  0  0  0  0
  8 16  1  0  0  0  0
  9 10  1  0  0  0  0
 10 11  4  0  0  0  0
 10 15  4  0  0  0  0
 11 12  4  0  0  0  0
 12 13  4  0  0  0  0
 13 14  4  0  0  0  0
 14 15  4  0  0  0  0
 16 17  1  0  0  0  0
 16 21  1  0  0  0  0
 17 18  1  0  0  0  0
 18 19  1  0  0  0  0
 19 20  1  0  0  0  0
 19 22  1  0  0  0  0
 20 21  1  0  0  0  0
 22 23  1  0  0  0  0
 23 24  1  0  0  0  0
 24 25  1  0  0  0  0
 25 26  1  0  0  0  0
 26 27  1  0  0  0  0
M  END
>  <Name_Molregno>
QUETIAPINE

>  <5-HT1A>
6.59

>  <5-HT1B>
5.83

>  <5-HT1D>
5.52

>  <5-HT1E>
5.76

>  <5-HT2A>
6.76

>  <5-HT2C>
5.82

>  <5-HT3>
5

>  <5-HT5>
5.51

>  <5-HT6>
6.35

>  <5-HT7>
6.74

>  <Alpha-1A>
7.66

>  <Alpha-1B>
7.41

>  <Alpha-2A>
5.51

>  <Alpha-2B>
6.44

>  <Alpha-2C>
7.18

>  <Beta-1>
5.15

>  <Beta-2>
5.15

>  <DOPAMINE D1>
5.95

>  <DOPAMINE D2>
6.51

>  <DOPAMINE D3>
6.59

>  <DOPAMINE D4>
5.77

>  <DOPAMINE D5>
5.79

>  <Dopamine transporter>
5

>  <HISTAMINE H1>
8.1

>  <HISTAMINE H2>
5

>  <HISTAMINE H4>
5

>  <Muscarinic acetylcholine receptor M1>
6.71

>  <Muscarinic acetylcholine receptor M2>
6.03

>  <Muscarinic acetylcholine receptor M3>
5.69

>  <Muscarinic acetylcholine receptor M4>
6.5

>  <Muscarinic acetylcholine receptor M5>
5.58

>  <Norepinephrine transporter>
5

>  <Serotonin transporter>
5.18

$$$$
RACLOPRIDE
  Marvin  02231216192D 0   1.00000     0.00000     0

 22 23  0  0  1  0  0  0  0  0999 V2000
    0.4554    0.1464    0.0000 Cl  0  0  0  0  0  0  0  0  0
    1.1698    0.5589    0.0000 C   0  0  0  0  0  0  0  0  0
    1.1698    1.3839    0.0000 C   0  0  0  0  0  0  0  0  0
    1.8843    1.7964    0.0000 C   0  0  0  0  0  0  0  0  0
    1.8843    2.6214    0.0000 Cl  0  0  0  0  0  0  0  0  0
    2.5988    1.3839    0.0000 C   0  0  0  0  0  0  0  0  0
    3.3132    1.7964    0.0000 O   0  0  0  0  0  0  0  0  0
    2.5988    0.5589    0.0000 C   0  0  0  0  0  0  0  0  0
    3.3132    0.1464    0.0000 C   0  0  0  0  0  0  0  0  0
    4.0277    0.5589    0.0000 O   0  0  0  0  0  0  0  0  0
    3.3132   -0.6786    0.0000 N   0  0  0  0  0  0  0  0  0
    4.0277   -1.0911    0.0000 C   0  0  0  0  0  0  0  0  0
    4.0277   -1.9161    0.0000 C   0  0  0  0  0  0  0  0  0
    4.6952   -2.4010    0.0000 N   0  0  0  0  0  0  0  0  0
    4.4402   -3.1856    0.0000 C   0  0  0  0  0  0  0  0  0
    3.6152   -3.1856    0.0000 C   0  0  0  0  0  0  0  0  0
    3.3603   -2.4010    0.0000 C   0  0  0  0  0  0  0  0  0
    5.4798   -2.1461    0.0000 C   0  0  0  0  0  0  0  0  0
    5.6513   -1.3391    0.0000 C   0  0  0  0  0  0  0  0  0
    1.8843    0.1464    0.0000 C   0  0  0  0  0  0  0  0  0
    1.8843   -0.6786    0.0000 O   0  0  0  0  0  0  0  0  0
    2.5988   -1.0911    0.0000 C   0  0  0  0  0  0  0  0  0
  1  2  1  0  0  0  0
  2  3  4  0  0  0  0
  2 20  4  0  0  0  0
  3  4  4  0  0  0  0
  4  5  1  0  0  0  0
  4  6  4  0  0  0  0
  6  7  1  0  0  0  0
  6  8  4  0  0  0  0
  8  9  1  0  0  0  0
  8 20  4  0  0  0  0
  9 10  2  0  0  0  0
  9 11  1  0  0  0  0
 11 12  1  0  0  0  0
 12 13  1  0  0  0  0
 13 14  1  0  0  0  0
 13 17  1  0  0  0  0
 14 15  1  0  0  0  0
 14 18  1  0  0  0  0
 15 16  1  0  0  0  0
 16 17  1  0  0  0  0
 18 19  1  0  0  0  0
 20 21  1  0  0  0  0
 21 22  1  0  0  0  0
M  END
>  <Name_Molregno>
RACLOPRIDE

>  <5-HT2A>
5.31

>  <DOPAMINE D2>
8.72

>  <DOPAMINE D3>
8.62

>  <DOPAMINE D4>
5.73

$$$$
REMOXIPRIDE
  Marvin  02231216192D 0   1.00000     0.00000     0

 22 23  0  0  1  0  0  0  0  0999 V2000
    0.4227    0.2134    0.0000 Br  0  0  0  0  0  0  0  0  0
    1.1371    0.6259    0.0000 C   0  0  0  0  0  0  0  0  0
    1.1371    1.4509    0.0000 C   0  0  0  0  0  0  0  0  0
    1.8516    1.8634    0.0000 C   0  0  0  0  0  0  0  0  0
    2.5661    1.4509    0.0000 C   0  0  0  0  0  0  0  0  0
    3.2805    1.8634    0.0000 O   0  0  0  0  0  0  0  0  0
    3.9950    1.4509    0.0000 C   0  0  0  0  0  0  0  0  0
    2.5661    0.6259    0.0000 C   0  0  0  0  0  0  0  0  0
    3.2805    0.2134    0.0000 C   0  0  0  0  0  0  0  0  0
    3.9950    0.6259    0.0000 O   0  0  0  0  0  0  0  0  0
    3.2805   -0.6116    0.0000 N   0  0  0  0  0  0  0  0  0
    3.9950   -1.0241    0.0000 C   0  0  0  0  0  0  0  0  0
    3.9950   -1.8491    0.0000 C   0  0  0  0  0  0  0  0  0
    4.6625   -2.3340    0.0000 N   0  0  0  0  0  0  0  0  0
    4.4075   -3.1186    0.0000 C   0  0  0  0  0  0  0  0  0
    3.5825   -3.1186    0.0000 C   0  0  0  0  0  0  0  0  0
    3.3276   -2.3340    0.0000 C   0  0  0  0  0  0  0  0  0
    5.4471   -2.0790    0.0000 C   0  0  0  0  0  0  0  0  0
    5.6186   -1.2721    0.0000 C   0  0  0  0  0  0  0  0  0
    1.8516    0.2134    0.0000 C   0  0  0  0  0  0  0  0  0
    1.8516   -0.6116    0.0000 O   0  0  0  0  0  0  0  0  0
    2.5661   -1.0241    0.0000 C   0  0  0  0  0  0  0  0  0
  1  2  1  0  0  0  0
  2  3  4  0  0  0  0
  2 20  4  0  0  0  0
  3  4  4  0  0  0  0
  4  5  4  0  0  0  0
  5  6  1  0  0  0  0
  5  8  4  0  0  0  0
  6  7  1  0  0  0  0
  8  9  1  0  0  0  0
  8 20  4  0  0  0  0
  9 10  2  0  0  0  0
  9 11  1  0  0  0  0
 11 12  1  0  0  0  0
 12 13  1  0  0  0  0
 13 14  1  0  0  0  0
 13 17  1  0  0  0  0
 14 15  1  0  0  0  0
 14 18  1  0  0  0  0
 15 16  1  0  0  0  0
 16 17  1  0  0  0  0
 18 19  1  0  0  0  0
 20 21  1  0  0  0  0
 21 22  1  0  0  0  0
M  END
>  <Name_Molregno>
REMOXIPRIDE

>  <5-HT2A>
5.24

>  <DOPAMINE D2>
7.01

>  <DOPAMINE D3>
6.12

>  <DOPAMINE D4>
5.6

$$$$
RISPERIDONE
  Marvin  02231216192D 0   1.00000     0.00000     0

 30 34  0  0  0  0  0  0  0  0999 V2000
    1.8325   -2.9394    0.0000 F   0  0  0  0  0  0  0  0  0
    2.0875   -2.1548    0.0000 C   0  0  0  0  0  0  0  0  0
    1.5354   -1.5417    0.0000 C   0  0  0  0  0  0  0  0  0
    1.7904   -0.7571    0.0000 C   0  0  0  0  0  0  0  0  0
    1.3779   -0.0426    0.0000 O   0  0  0  0  0  0  0  0  0
    1.9299    0.5705    0.0000 N   0  0  0  0  0  0  0  0  0
    2.6836    0.2349    0.0000 C   0  0  0  0  0  0  0  0  0
    2.5974   -0.5856    0.0000 C   0  0  0  0  0  0  0  0  0
    3.1494   -1.1987    0.0000 C   0  0  0  0  0  0  0  0  0
    2.8945   -1.9833    0.0000 C   0  0  0  0  0  0  0  0  0
    3.3981    0.6474    0.0000 C   0  0  0  0  0  0  0  0  0
    3.3981    1.4724    0.0000 C   0  0  0  0  0  0  0  0  0
    4.1125    1.8849    0.0000 C   0  0  0  0  0  0  0  0  0
    4.8270    1.4724    0.0000 N   0  0  0  0  0  0  0  0  0
    4.8270    0.6474    0.0000 C   0  0  0  0  0  0  0  0  0
    4.1125    0.2349    0.0000 C   0  0  0  0  0  0  0  0  0
    5.5415    1.8849    0.0000 C   0  0  0  0  0  0  0  0  0
    6.2559    1.4724    0.0000 C   0  0  0  0  0  0  0  0  0
    6.9704    1.8849    0.0000 C   0  0  0  0  0  0  0  0  0
    7.6849    1.4724    0.0000 C   0  0  0  0  0  0  0  0  0
    7.6849    0.6474    0.0000 O   0  0  0  0  0  0  0  0  0
    8.3994    1.8849    0.0000 N   0  0  0  0  0  0  0  0  0
    8.3994    2.7099    0.0000 C   0  0  0  0  0  0  0  0  0
    7.6849    3.1224    0.0000 N   0  0  0  0  0  0  0  0  0
    6.9704    2.7099    0.0000 C   0  0  0  0  0  0  0  0  0
    6.2559    3.1224    0.0000 C   0  0  0  0  0  0  0  0  0
    9.1138    3.1224    0.0000 C   0  0  0  0  0  0  0  0  0
    9.8283    2.7099    0.0000 C   0  0  0  0  0  0  0  0  0
    9.8283    1.8849    0.0000 C   0  0  0  0  0  0  0  0  0
    9.1138    1.4724    0.0000 C   0  0  0  0  0  0  0  0  0
  1  2  1  0  0  0  0
  2  3  4  0  0  0  0
  2 10  4  0  0  0  0
  3  4  4  0  0  0  0
  4  5  4  0  0  0  0
  4  8  4  0  0  0  0
  5  6  4  0  0  0  0
  6  7  4  0  0  0  0
  7  8  4  0  0  0  0
  7 11  1  0  0  0  0
  8  9  4  0  0  0  0
  9 10  4  0  0  0  0
 11 12  1  0  0  0  0
 11 16  1  0  0  0  0
 12 13  1  0  0  0  0
 13 14  1  0  0  0  0
 14 15  1  0  0  0  0
 14 17  1  0  0  0  0
 15 16  1  0  0  0  0
 17 18  1  0  0  0  0
 18 19  1  0  0  0  0
 19 20  1  0  0  0  0
 19 25  2  0  0  0  0
 20 21  2  0  0  0  0
 20 22  1  0  0  0  0
 22 23  1  0  0  0  0
 22 30  1  0  0  0  0
 23 24  2  0  0  0  0
 23 27  1  0  0  0  0
 24 25  1  0  0  0  0
 25 26  1  0  0  0  0
 27 28  1  0  0  0  0
 28 29  1  0  0  0  0
 29 30  1  0  0  0  0
M  END
>  <Name_Molregno>
RISPERIDONE

>  <5-HT1A>
6.52

>  <5-HT1B>
7.66

>  <5-HT1D>
7.6

>  <5-HT1E>
5.44

>  <5-HT2A>
9.35

>  <5-HT2C>
7.74

>  <5-HT3>
5

>  <5-HT5>
6.69

>  <5-HT6>
5.7

>  <5-HT7>
8.4

>  <Alpha-1A>
8.38

>  <Alpha-1B>
8.05

>  <Alpha-2A>
7.46

>  <Alpha-2B>
7.34

>  <Alpha-2C>
8.56

>  <Beta-1>
5.15

>  <Beta-2>
5.15

>  <DOPAMINE D1>
6.61

>  <DOPAMINE D2>
8.58

>  <DOPAMINE D3>
8.17

>  <DOPAMINE D4>
8.17

>  <DOPAMINE D5>
7.03

>  <Dopamine transporter>
5

>  <HISTAMINE H1>
7.79

>  <HISTAMINE H2>
6.92

>  <HISTAMINE H4>
5

>  <Muscarinic acetylcholine receptor M1>
5.22

>  <Muscarinic acetylcholine receptor M2>
5.14

>  <Muscarinic acetylcholine receptor M3>
5

>  <Muscarinic acetylcholine receptor M4>
5.18

>  <Muscarinic acetylcholine receptor M5>
5

>  <Norepinephrine transporter>
5

>  <Serotonin transporter>
5.67

$$$$
RITANSERIN
  Marvin  02231216192D 0   1.00000     0.00000     0

 34 38  0  0  0  0  0  0  0  0999 V2000
   -9.6255    1.6331    0.0000 S   0  0  0  0  0  0  0  0  0
  -10.1104    0.9657    0.0000 C   0  0  0  0  0  0  0  0  0
   -9.6255    0.2982    0.0000 C   0  0  0  0  0  0  0  0  0
   -8.8409    0.5532    0.0000 N   0  0  0  0  0  0  0  0  0
   -8.8409    1.3782    0.0000 C   0  0  0  0  0  0  0  0  0
   -8.1264    1.7907    0.0000 N   0  0  0  0  0  0  0  0  0
   -7.4119    1.3782    0.0000 C   0  0  0  0  0  0  0  0  0
   -6.6974    1.7907    0.0000 C   0  0  0  0  0  0  0  0  0
   -7.4119    0.5532    0.0000 C   0  0  0  0  0  0  0  0  0
   -6.6974    0.1407    0.0000 C   0  0  0  0  0  0  0  0  0
   -5.9830    0.5532    0.0000 C   0  0  0  0  0  0  0  0  0
   -5.2685    0.1407    0.0000 N   0  0  0  0  0  0  0  0  0
   -4.5540    0.5532    0.0000 C   0  0  0  0  0  0  0  0  0
   -3.8396    0.1407    0.0000 C   0  0  0  0  0  0  0  0  0
   -3.8396   -0.6843    0.0000 C   0  0  0  0  0  0  0  0  0
   -4.5540   -1.0968    0.0000 C   0  0  0  0  0  0  0  0  0
   -5.2685   -0.6843    0.0000 C   0  0  0  0  0  0  0  0  0
   -3.1251   -1.0968    0.0000 C   0  0  0  0  0  0  0  0  0
   -3.1251   -1.9218    0.0000 C   0  0  0  0  0  0  0  0  0
   -2.4106   -2.3343    0.0000 C   0  0  0  0  0  0  0  0  0
   -2.4106   -3.1593    0.0000 C   0  0  0  0  0  0  0  0  0
   -3.1251   -3.5718    0.0000 C   0  0  0  0  0  0  0  0  0
   -3.1251   -4.3968    0.0000 F   0  0  0  0  0  0  0  0  0
   -3.8396   -3.1593    0.0000 C   0  0  0  0  0  0  0  0  0
   -3.8396   -2.3343    0.0000 C   0  0  0  0  0  0  0  0  0
   -2.4106   -0.6843    0.0000 C   0  0  0  0  0  0  0  0  0
   -2.4106    0.1407    0.0000 C   0  0  0  0  0  0  0  0  0
   -1.6961    0.5532    0.0000 C   0  0  0  0  0  0  0  0  0
   -0.9817    0.1407    0.0000 C   0  0  0  0  0  0  0  0  0
   -0.2672    0.5532    0.0000 F   0  0  0  0  0  0  0  0  0
   -0.9817   -0.6843    0.0000 C   0  0  0  0  0  0  0  0  0
   -1.6961   -1.0968    0.0000 C   0  0  0  0  0  0  0  0  0
   -8.1264    0.1407    0.0000 C   0  0  0  0  0  0  0  0  0
   -8.1264   -0.6843    0.0000 O   0  0  0  0  0  0  0  0  0
  1  2  1  0  0  0  0
  1  5  1  0  0  0  0
  2  3  2  0  0  0  0
  3  4  1  0  0  0  0
  4  5  1  0  0  0  0
  4 33  1  0  0  0  0
  5  6  2  0  0  0  0
  6  7  1  0  0  0  0
  7  8  1  0  0  0  0
  7  9  2  0  0  0  0
  9 10  1  0  0  0  0
  9 33  1  0  0  0  0
 10 11  1  0  0  0  0
 11 12  1  0  0  0  0
 12 13  1  0  0  0  0
 12 17  1  0  0  0  0
 13 14  1  0  0  0  0
 14 15  1  0  0  0  0
 15 16  1  0  0  0  0
 15 18  2  0  0  0  0
 16 17  1  0  0  0  0
 18 19  1  0  0  0  0
 18 26  1  0  0  0  0
 19 20  4  0  0  0  0
 19 25  4  0  0  0  0
 20 21  4  0  0  0  0
 21 22  4  0  0  0  0
 22 23  1  0  0  0  0
 22 24  4  0  0  0  0
 24 25  4  0  0  0  0
 26 27  4  0  0  0  0
 26 32  4  0  0  0  0
 27 28  4  0  0  0  0
 28 29  4  0  0  0  0
 29 30  1  0  0  0  0
 29 31  4  0  0  0  0
 31 32  4  0  0  0  0
 33 34  2  0  0  0  0
M  END
>  <Name_Molregno>
RITANSERIN

>  <5-HT1A>
5.53

>  <5-HT1B>
6.56

>  <5-HT1D>
6.29

>  <5-HT2A>
9.14

>  <5-HT2C>
9.04

>  <5-HT3>
5

>  <5-HT6>
7.54

>  <5-HT7>
7.34

>  <DOPAMINE D1>
6.03

>  <DOPAMINE D2>
7.54

>  <DOPAMINE D3>
7.62

>  <DOPAMINE D4>
7.52

$$$$
Ropinirole
  Marvin  02231216192D 0   1.00000     0.00000     0

 19 20  0  0  0  0  0  0  0  0999 V2000
    0.9619   -1.7047    0.0000 O   0  0  0  0  0  0  0  0  0
    1.7869   -1.7047    0.0000 C   0  0  0  0  0  0  0  0  0
    2.2718   -2.3721    0.0000 N   0  0  0  0  0  0  0  0  0
    3.0565   -2.1172    0.0000 C   0  0  0  0  0  0  0  0  0
    3.0565   -1.2922    0.0000 C   0  0  0  0  0  0  0  0  0
    2.2718   -1.0372    0.0000 C   0  0  0  0  0  0  0  0  0
    3.7709   -0.8797    0.0000 C   0  0  0  0  0  0  0  0  0
    4.4854   -1.2922    0.0000 C   0  0  0  0  0  0  0  0  0
    4.4854   -2.1172    0.0000 C   0  0  0  0  0  0  0  0  0
    3.7709   -2.5297    0.0000 C   0  0  0  0  0  0  0  0  0
    3.7709   -0.0547    0.0000 C   0  0  0  0  0  0  0  0  0
    3.0565    0.3578    0.0000 C   0  0  0  0  0  0  0  0  0
    3.0565    1.1828    0.0000 N   0  0  0  0  0  0  0  0  0
    2.3420    1.5953    0.0000 C   0  0  0  0  0  0  0  0  0
    2.3420    2.4203    0.0000 C   0  0  0  0  0  0  0  0  0
    1.6275    2.8328    0.0000 C   0  0  0  0  0  0  0  0  0
    3.7709    1.5953    0.0000 C   0  0  0  0  0  0  0  0  0
    3.7709    2.4203    0.0000 C   0  0  0  0  0  0  0  0  0
    4.4854    2.8328    0.0000 C   0  0  0  0  0  0  0  0  0
  1  2  2  0  0  0  0
  2  3  1  0  0  0  0
  2  6  1  0  0  0  0
  3  4  1  0  0  0  0
  4  5  4  0  0  0  0
  4 10  4  0  0  0  0
  5  6  1  0  0  0  0
  5  7  4  0  0  0  0
  7  8  4  0  0  0  0
  7 11  1  0  0  0  0
  8  9  4  0  0  0  0
  9 10  4  0  0  0  0
 11 12  1  0  0  0  0
 12 13  1  0  0  0  0
 13 14  1  0  0  0  0
 13 17  1  0  0  0  0
 14 15  1  0  0  0  0
 15 16  1  0  0  0  0
 17 18  1  0  0  0  0
 18 19  1  0  0  0  0
M  END
>  <Name_Molregno>
Ropinirole

>  <5-HT1A>
6.28

>  <5-HT1B>
5

>  <5-HT1D>
5.86

>  <5-HT2A>
5

>  <5-HT2C>
5

>  <5-HT5>
5

>  <5-HT6>
5

>  <5-HT7>
5.82

>  <Alpha-1A>
5

>  <Alpha-1B>
5

>  <Alpha-2A>
5.73

>  <Alpha-2B>
6.12

>  <Alpha-2C>
5.92

>  <Beta-1>
5

>  <Beta-2>
5

>  <DOPAMINE D1>
5

>  <DOPAMINE D2>
6.45

>  <DOPAMINE D3>
7.5

>  <DOPAMINE D4>
6.07

>  <DOPAMINE D5>
5

$$$$
Roxindole
  Marvin  02231216192D 0   1.00000     0.00000     0

 26 29  0  0  0  0  0  0  0  0999 V2000
   -0.4898   -0.6830    0.0000 O   0  0  0  0  0  0  0  0  0
   -1.2043   -0.2705    0.0000 C   0  0  0  0  0  0  0  0  0
   -1.9188   -0.6830    0.0000 C   0  0  0  0  0  0  0  0  0
   -2.6332   -0.2705    0.0000 C   0  0  0  0  0  0  0  0  0
   -2.6332    0.5545    0.0000 C   0  0  0  0  0  0  0  0  0
   -3.4179    0.8095    0.0000 N   0  0  0  0  0  0  0  0  0
   -3.9028    0.1420    0.0000 C   0  0  0  0  0  0  0  0  0
   -3.4179   -0.5254    0.0000 C   0  0  0  0  0  0  0  0  0
   -3.6728   -1.3100    0.0000 C   0  0  0  0  0  0  0  0  0
   -3.1208   -1.9231    0.0000 C   0  0  0  0  0  0  0  0  0
   -3.3757   -2.7077    0.0000 C   0  0  0  0  0  0  0  0  0
   -2.8237   -3.3208    0.0000 C   0  0  0  0  0  0  0  0  0
   -3.0786   -4.1055    0.0000 N   0  0  0  0  0  0  0  0  0
   -2.5266   -4.7185    0.0000 C   0  0  0  0  0  0  0  0  0
   -2.7815   -5.5032    0.0000 C   0  0  0  0  0  0  0  0  0
   -3.5885   -5.6747    0.0000 C   0  0  0  0  0  0  0  0  0
   -4.1405   -5.0616    0.0000 C   0  0  0  0  0  0  0  0  0
   -3.8856   -4.2770    0.0000 C   0  0  0  0  0  0  0  0  0
   -3.8434   -6.4593    0.0000 C   0  0  0  0  0  0  0  0  0
   -3.2914   -7.0724    0.0000 C   0  0  0  0  0  0  0  0  0
   -3.5463   -7.8570    0.0000 C   0  0  0  0  0  0  0  0  0
   -4.3533   -8.0286    0.0000 C   0  0  0  0  0  0  0  0  0
   -4.9053   -7.4155    0.0000 C   0  0  0  0  0  0  0  0  0
   -4.6504   -6.6308    0.0000 C   0  0  0  0  0  0  0  0  0
   -1.9188    0.9670    0.0000 C   0  0  0  0  0  0  0  0  0
   -1.2043    0.5545    0.0000 C   0  0  0  0  0  0  0  0  0
  1  2  1  0  0  0  0
  2  3  4  0  0  0  0
  2 26  4  0  0  0  0
  3  4  4  0  0  0  0
  4  5  4  0  0  0  0
  4  8  4  0  0  0  0
  5  6  4  0  0  0  0
  5 25  4  0  0  0  0
  6  7  4  0  0  0  0
  7  8  4  0  0  0  0
  8  9  1  0  0  0  0
  9 10  1  0  0  0  0
 10 11  1  0  0  0  0
 11 12  1  0  0  0  0
 12 13  1  0  0  0  0
 13 14  1  0  0  0  0
 13 18  1  0  0  0  0
 14 15  1  0  0  0  0
 15 16  1  0  0  0  0
 16 17  2  0  0  0  0
 16 19  1  0  0  0  0
 17 18  1  0  0  0  0
 19 20  4  0  0  0  0
 19 24  4  0  0  0  0
 20 21  4  0  0  0  0
 21 22  4  0  0  0  0
 22 23  4  0  0  0  0
 23 24  4  0  0  0  0
 25 26  4  0  0  0  0
M  STY  1   1 DAT
M  SAL   1  1   6
M  SDT   1 MRV_IMPLICIT_H                                        
M  SDD   1     0.0000    0.0000    DR    ALL  0       0  
M  SED   1 IMPL_H1
M  END
>  <Name_Molregno>
Roxindole

>  <5-HT1A>
9.94

>  <5-HT1D>
7.2

>  <5-HT2A>
8.18

>  <5-HT2C>
6.51

>  <Alpha-1A>
8.59

>  <Alpha-1B>
8.55

>  <Alpha-2A>
8.21

>  <Alpha-2B>
8.34

>  <Alpha-2C>
8.75

>  <Beta-1>
5.57

>  <Beta-2>
6.03

>  <DOPAMINE D1>
6.33

>  <DOPAMINE D2>
8.45

>  <DOPAMINE D3>
8.93

>  <DOPAMINE D4>
8.23

>  <DOPAMINE D5>
6.72

$$$$
SDZ-HDC-912
  Marvin  02231216192D 0   1.00000     0.00000     0

 25 28  0  0  1  0  0  0  0  0999 V2000
   -2.6796    1.7708    0.0000 Cl  0  0  0  0  0  0  0  0  0
   -2.2023    1.0980    0.0000 C   0  0  0  0  0  0  0  0  0
   -1.3773    1.0980    0.0000 N   0  0  0  0  0  0  0  0  0
   -1.0719    0.2408    0.0000 C   0  0  0  0  0  0  0  0  0
   -1.7898   -0.1717    0.0000 C   0  0  0  0  0  0  0  0  0
   -2.5023    0.2408    0.0000 C   0  0  0  0  0  0  0  0  0
   -3.2148   -0.1717    0.0000 C   0  0  0  0  0  0  0  0  0
   -3.2148   -0.9967    0.0000 C   0  0  0  0  0  0  0  0  0
   -3.9297   -1.4083    0.0000 N   0  0  0  0  0  0  0  0  0
   -3.9307   -2.2333    0.0000 C   0  0  0  0  0  0  0  0  0
   -3.2167   -2.6467    0.0000 C   0  0  0  0  0  0  0  0  0
   -3.2177   -3.4717    0.0000 N   0  0  0  0  0  0  0  0  0
   -3.9327   -3.8833    0.0000 C   0  0  0  0  0  0  0  0  0
   -4.6467   -3.4700    0.0000 O   0  0  0  0  0  0  0  0  0
   -3.9337   -4.7083    0.0000 C   0  0  0  0  0  0  0  0  0
   -3.9347   -5.5333    0.0000 C   0  0  0  0  0  0  0  0  0
   -4.7587   -4.7073    0.0000 C   0  0  0  0  0  0  0  0  0
   -3.1087   -4.7093    0.0000 C   0  0  0  0  0  0  0  0  0
   -2.5018   -2.2350    0.0000 C   0  0  0  0  0  0  0  0  0
   -2.5008   -1.4100    0.0000 C   0  0  0  0  0  0  0  0  0
   -1.7898   -0.9967    0.0000 C   0  0  0  0  0  0  0  0  0
   -1.0719   -1.4092    0.0000 C   0  0  0  0  0  0  0  0  0
   -0.3594   -0.9967    0.0000 C   0  0  0  0  0  0  0  0  0
   -0.3594   -0.1717    0.0000 C   0  0  0  0  0  0  0  0  0
   -4.6437   -0.9950    0.0000 C   0  0  0  0  0  0  0  0  0
  1  2  1  0  0  0  0
  2  3  4  0  0  0  0
  2  6  4  0  0  0  0
  3  4  4  0  0  0  0
  4  5  4  0  0  0  0
  4 24  4  0  0  0  0
  5  6  4  0  0  0  0
  5 21  4  0  0  0  0
  6  7  1  0  0  0  0
  7  8  1  0  0  0  0
  8  9  1  0  0  0  0
  8 20  1  0  0  0  0
  9 10  1  0  0  0  0
  9 25  1  0  0  0  0
 10 11  1  0  0  0  0
 11 12  1  0  0  0  0
 11 19  1  0  0  0  0
 12 13  1  0  0  0  0
 13 14  2  0  0  0  0
 13 15  1  0  0  0  0
 15 16  1  0  0  0  0
 15 17  1  0  0  0  0
 15 18  1  0  0  0  0
 19 20  1  0  0  0  0
 20 21  1  0  0  0  0
 21 22  4  0  0  0  0
 22 23  4  0  0  0  0
 23 24  4  0  0  0  0
M  STY  1   1 DAT
M  SAL   1  1   3
M  SDT   1 MRV_IMPLICIT_H                                        
M  SDD   1     0.0000    0.0000    DR    ALL  0       0  
M  SED   1 IMPL_H1
M  END
>  <Name_Molregno>
SDZ-HDC-912

>  <DOPAMINE D2>
9.05

>  <DOPAMINE D4>
8.46

$$$$
SERTINDOLE
  Marvin  02231216192D 0   1.00000     0.00000     0

 31 35  0  0  0  0  0  0  0  0999 V2000
    1.9546   -2.6271    0.0000 Cl  0  0  0  0  0  0  0  0  0
    1.2402   -2.2146    0.0000 C   0  0  0  0  0  0  0  0  0
    0.5257   -2.6271    0.0000 C   0  0  0  0  0  0  0  0  0
   -0.1888   -2.2146    0.0000 C   0  0  0  0  0  0  0  0  0
   -0.1888   -1.3896    0.0000 C   0  0  0  0  0  0  0  0  0
   -0.9734   -1.1347    0.0000 N   0  0  0  0  0  0  0  0  0
   -1.4583   -1.8021    0.0000 C   0  0  0  0  0  0  0  0  0
   -0.9734   -2.4695    0.0000 C   0  0  0  0  0  0  0  0  0
   -1.2283   -3.2542    0.0000 C   0  0  0  0  0  0  0  0  0
   -0.6763   -3.8672    0.0000 C   0  0  0  0  0  0  0  0  0
   -0.9312   -4.6519    0.0000 C   0  0  0  0  0  0  0  0  0
   -1.7382   -4.8234    0.0000 N   0  0  0  0  0  0  0  0  0
   -2.2902   -4.2103    0.0000 C   0  0  0  0  0  0  0  0  0
   -2.0353   -3.4257    0.0000 C   0  0  0  0  0  0  0  0  0
   -1.9931   -5.6080    0.0000 C   0  0  0  0  0  0  0  0  0
   -2.8001   -5.7795    0.0000 C   0  0  0  0  0  0  0  0  0
   -3.0551   -6.5642    0.0000 N   0  0  0  0  0  0  0  0  0
   -2.5701   -7.2316    0.0000 C   0  0  0  0  0  0  0  0  0
   -3.0551   -7.8990    0.0000 C   0  0  0  0  0  0  0  0  0
   -3.8397   -7.6441    0.0000 N   0  0  0  0  0  0  0  0  0
   -3.8397   -6.8191    0.0000 C   0  0  0  0  0  0  0  0  0
   -4.5071   -6.3342    0.0000 O   0  0  0  0  0  0  0  0  0
   -1.2283   -0.3500    0.0000 C   0  0  0  0  0  0  0  0  0
   -2.0353   -0.1785    0.0000 C   0  0  0  0  0  0  0  0  0
   -2.2902    0.6061    0.0000 C   0  0  0  0  0  0  0  0  0
   -1.7382    1.2192    0.0000 C   0  0  0  0  0  0  0  0  0
   -1.9931    2.0038    0.0000 F   0  0  0  0  0  0  0  0  0
   -0.9312    1.0477    0.0000 C   0  0  0  0  0  0  0  0  0
   -0.6763    0.2631    0.0000 C   0  0  0  0  0  0  0  0  0
    0.5257   -0.9771    0.0000 C   0  0  0  0  0  0  0  0  0
    1.2402   -1.3896    0.0000 C   0  0  0  0  0  0  0  0  0
  1  2  1  0  0  0  0
  2  3  4  0  0  0  0
  2 31  4  0  0  0  0
  3  4  4  0  0  0  0
  4  5  4  0  0  0  0
  4  8  4  0  0  0  0
  5  6  4  0  0  0  0
  5 30  4  0  0  0  0
  6  7  4  0  0  0  0
  6 23  1  0  0  0  0
  7  8  4  0  0  0  0
  8  9  1  0  0  0  0
  9 10  1  0  0  0  0
  9 14  1  0  0  0  0
 10 11  1  0  0  0  0
 11 12  1  0  0  0  0
 12 13  1  0  0  0  0
 12 15  1  0  0  0  0
 13 14  1  0  0  0  0
 15 16  1  0  0  0  0
 16 17  1  0  0  0  0
 17 18  1  0  0  0  0
 17 21  1  0  0  0  0
 18 19  1  0  0  0  0
 19 20  1  0  0  0  0
 20 21  1  0  0  0  0
 21 22  2  0  0  0  0
 23 24  4  0  0  0  0
 23 29  4  0  0  0  0
 24 25  4  0  0  0  0
 25 26  4  0  0  0  0
 26 27  1  0  0  0  0
 26 28  4  0  0  0  0
 28 29  4  0  0  0  0
 30 31  4  0  0  0  0
M  END
>  <Name_Molregno>
SERTINDOLE

>  <5-HT1A>
6.36

>  <5-HT1B>
7.22

>  <5-HT1D>
7.36

>  <5-HT1E>
6.37

>  <5-HT2A>
9.49

>  <5-HT2C>
8.64

>  <5-HT6>
8.27

>  <5-HT7>
7.55

>  <Alpha-1A>
8.74

>  <Alpha-2A>
6.19

>  <Alpha-2B>
6.35

>  <Alpha-2C>
6.35

>  <Beta-1>
5.3

>  <Beta-2>
5.3

>  <DOPAMINE D2>
8.54

>  <DOPAMINE D3>
8.35

>  <DOPAMINE D4>
8.2

>  <HISTAMINE H1>
6.76

>  <Muscarinic acetylcholine receptor M3>
5.57

>  <Serotonin transporter>
6

$$$$
SPIPERONE
  Marvin  02231216192D 0   1.00000     0.00000     0

 29 32  0  0  0  0  0  0  0  0999 V2000
   10.5422    0.0060    0.0000 F   0  0  0  0  0  0  0  0  0
    9.7172    0.0060    0.0000 C   0  0  0  0  0  0  0  0  0
    9.3047   -0.7084    0.0000 C   0  0  0  0  0  0  0  0  0
    8.4797   -0.7084    0.0000 C   0  0  0  0  0  0  0  0  0
    8.0672    0.0060    0.0000 C   0  0  0  0  0  0  0  0  0
    8.4797    0.7205    0.0000 C   0  0  0  0  0  0  0  0  0
    9.3047    0.7205    0.0000 C   0  0  0  0  0  0  0  0  0
    7.2422    0.0060    0.0000 C   0  0  0  0  0  0  0  0  0
    6.8297    0.7205    0.0000 O   0  0  0  0  0  0  0  0  0
    6.8297   -0.7084    0.0000 C   0  0  0  0  0  0  0  0  0
    6.0047   -0.7084    0.0000 C   0  0  0  0  0  0  0  0  0
    5.5922   -1.4229    0.0000 C   0  0  0  0  0  0  0  0  0
    4.7672   -1.4229    0.0000 N   0  0  0  0  0  0  0  0  0
    4.3547   -2.1374    0.0000 C   0  0  0  0  0  0  0  0  0
    3.5297   -2.1374    0.0000 C   0  0  0  0  0  0  0  0  0
    3.1172   -1.4229    0.0000 C   0  0  0  0  0  0  0  0  0
    2.6323   -2.0903    0.0000 N   0  0  0  0  0  0  0  0  0
    1.8476   -1.8354    0.0000 C   0  0  0  0  0  0  0  0  0
    1.8476   -1.0104    0.0000 N   0  0  0  0  0  0  0  0  0
    2.6323   -0.7555    0.0000 C   0  0  0  0  0  0  0  0  0
    2.8872    0.0292    0.0000 O   0  0  0  0  0  0  0  0  0
    2.8872   -2.8750    0.0000 C   0  0  0  0  0  0  0  0  0
    3.6942   -3.0465    0.0000 C   0  0  0  0  0  0  0  0  0
    3.9491   -3.8311    0.0000 C   0  0  0  0  0  0  0  0  0
    3.3971   -4.4442    0.0000 C   0  0  0  0  0  0  0  0  0
    2.5901   -4.2727    0.0000 C   0  0  0  0  0  0  0  0  0
    2.3352   -3.4880    0.0000 C   0  0  0  0  0  0  0  0  0
    3.5297   -0.7084    0.0000 C   0  0  0  0  0  0  0  0  0
    4.3547   -0.7084    0.0000 C   0  0  0  0  0  0  0  0  0
  1  2  1  0  0  0  0
  2  3  4  0  0  0  0
  2  7  4  0  0  0  0
  3  4  4  0  0  0  0
  4  5  4  0  0  0  0
  5  6  4  0  0  0  0
  5  8  1  0  0  0  0
  6  7  4  0  0  0  0
  8  9  2  0  0  0  0
  8 10  1  0  0  0  0
 10 11  1  0  0  0  0
 11 12  1  0  0  0  0
 12 13  1  0  0  0  0
 13 14  1  0  0  0  0
 13 29  1  0  0  0  0
 14 15  1  0  0  0  0
 15 16  1  0  0  0  0
 16 17  1  0  0  0  0
 16 20  1  0  0  0  0
 16 28  1  0  0  0  0
 17 18  1  0  0  0  0
 17 22  1  0  0  0  0
 18 19  1  0  0  0  0
 19 20  1  0  0  0  0
 20 21  2  0  0  0  0
 22 23  4  0  0  0  0
 22 27  4  0  0  0  0
 23 24  4  0  0  0  0
 24 25  4  0  0  0  0
 25 26  4  0  0  0  0
 26 27  4  0  0  0  0
 28 29  1  0  0  0  0
M  END
>  <Name_Molregno>
SPIPERONE

>  <5-HT1A>
7

>  <5-HT1B>
5.5

>  <5-HT1D>
5.4

>  <5-HT1E>
5.3

>  <5-HT2A>
8.65

>  <5-HT2C>
6.12

>  <5-HT5>
4.2

>  <5-HT6>
5.8

>  <5-HT7>
7.17

>  <Alpha-1A>
7.9

>  <Alpha-1B>
8.51

>  <DOPAMINE D1>
6.42

>  <DOPAMINE D2>
10.02

>  <DOPAMINE D3>
9.55

>  <DOPAMINE D4>
9.31

>  <DOPAMINE D5>
5.35

>  <HISTAMINE H1>
6.4

$$$$
SR144528
  Marvin  02231216192D 0   1.00000     0.00000     0

 34 38  0  0  1  0  0  0  0  0999 V2000
   -3.4859   -7.8445    0.0000 Cl  0  0  0  0  0  0  0  0  0
   -3.3410   -7.0323    0.0000 C   0  0  0  0  0  0  0  0  0
   -3.9720   -6.5008    0.0000 C   0  0  0  0  0  0  0  0  0
   -3.8271   -5.6886    0.0000 C   0  0  0  0  0  0  0  0  0
   -3.0513   -5.4080    0.0000 C   0  0  0  0  0  0  0  0  0
   -2.4203   -5.9395    0.0000 C   0  0  0  0  0  0  0  0  0
   -2.5652   -6.7517    0.0000 C   0  0  0  0  0  0  0  0  0
   -1.9343   -7.2833    0.0000 C   0  0  0  0  0  0  0  0  0
   -2.9064   -4.5958    0.0000 C   0  0  0  0  0  0  0  0  0
   -3.4783   -4.0012    0.0000 N   0  0  0  0  0  0  0  0  0
   -3.0895   -3.2735    0.0000 N   0  0  0  0  0  0  0  0  0
   -2.2773   -3.4184    0.0000 C   0  0  0  0  0  0  0  0  0
   -2.1641   -4.2356    0.0000 C   0  0  0  0  0  0  0  0  0
   -1.6827   -2.8465    0.0000 C   0  0  0  0  0  0  0  0  0
   -1.8807   -2.0456    0.0000 O   0  0  0  0  0  0  0  0  0
   -0.8901   -3.0755    0.0000 N   0  0  0  0  0  0  0  0  0
   -0.2955   -2.5036    0.0000 C   0  0  0  0  0  0  0  0  0
    0.0698   -1.8431    0.0000 C   0  0  0  0  0  0  0  0  0
    0.7101   -1.3929    0.0000 C   0  0  0  0  0  0  0  0  0
    0.5501   -0.5775    0.0000 C   0  0  0  0  0  0  0  0  0
    0.4800   -2.1133    0.0000 C   0  0  0  0  0  0  0  0  0
    1.2105   -2.4836    0.0000 C   0  0  0  0  0  0  0  0  0
    1.5056   -1.8582    0.0000 C   0  0  0  0  0  0  0  0  0
    0.4788   -2.9383    0.0000 C   0  0  0  0  0  0  0  0  0
   -0.7153   -1.5897    0.0000 C   0  0  0  0  0  0  0  0  0
   -0.2665   -1.0898    0.0000 C   0  0  0  0  0  0  0  0  0
   -4.2955   -4.1144    0.0000 C   0  0  0  0  0  0  0  0  0
   -4.8021   -3.4633    0.0000 C   0  0  0  0  0  0  0  0  0
   -5.6193   -3.5764    0.0000 C   0  0  0  0  0  0  0  0  0
   -6.1259   -2.9253    0.0000 C   0  0  0  0  0  0  0  0  0
   -5.8153   -2.1610    0.0000 C   0  0  0  0  0  0  0  0  0
   -4.9981   -2.0478    0.0000 C   0  0  0  0  0  0  0  0  0
   -4.4915   -2.6989    0.0000 C   0  0  0  0  0  0  0  0  0
   -6.3219   -1.5099    0.0000 C   0  0  0  0  0  0  0  0  0
  1  2  1  0  0  0  0
  2  3  4  0  0  0  0
  2  7  4  0  0  0  0
  3  4  4  0  0  0  0
  4  5  4  0  0  0  0
  5  6  4  0  0  0  0
  5  9  1  0  0  0  0
  6  7  4  0  0  0  0
  7  8  1  0  0  0  0
  9 10  4  0  0  0  0
  9 13  4  0  0  0  0
 10 11  4  0  0  0  0
 10 27  1  0  0  0  0
 11 12  4  0  0  0  0
 12 13  4  0  0  0  0
 12 14  1  0  0  0  0
 14 15  2  0  0  0  0
 14 16  1  0  0  0  0
 16 17  1  0  0  0  0
 17 18  1  0  0  0  0
 17 21  1  0  0  0  0
 18 19  1  0  0  0  0
 18 25  1  0  0  0  0
 18 26  1  0  0  0  0
 19 20  1  0  0  0  0
 19 23  1  0  0  0  0
 20 21  1  0  0  0  0
 21 22  1  0  0  0  0
 21 24  1  0  0  0  0
 22 23  1  0  0  0  0
 27 28  1  0  0  0  0
 28 29  4  0  0  0  0
 28 33  4  0  0  0  0
 29 30  4  0  0  0  0
 30 31  4  0  0  0  0
 31 32  4  0  0  0  0
 31 34  1  0  0  0  0
 32 33  4  0  0  0  0
M  END
>  <Name_Molregno>
SR144528

>  <5-HT1A>
5

>  <5-HT1B>
5

>  <5-HT1D>
5

>  <5-HT2A>
5

>  <5-HT2C>
5

>  <5-HT3>
5

>  <Beta-1>
5

>  <Beta-2>
5

>  <DOPAMINE D1>
5

>  <DOPAMINE D2>
5

>  <DOPAMINE D3>
5

>  <DOPAMINE D4>
5

>  <HISTAMINE H1>
5

>  <HISTAMINE H2>
5

>  <HISTAMINE H3>
5

>  <Muscarinic acetylcholine receptor M1>
5

>  <Muscarinic acetylcholine receptor M2>
5

>  <Muscarinic acetylcholine receptor M4>
5

$$$$
SULPIRIDE
  Marvin  02231216192D 0   1.00000     0.00000     0

 23 24  0  0  1  0  0  0  0  0999 V2000
   -2.6543    0.9455    0.0000 S   0  0  0  0  0  0  0  0  0
   -2.6543    1.7705    0.0000 O   0  0  0  0  0  0  0  0  0
   -3.4793    0.9455    0.0000 O   0  0  0  0  0  0  0  0  0
   -1.8293    0.9455    0.0000 N   0  0  0  0  0  0  0  0  0
   -2.6543    0.1205    0.0000 C   0  0  0  0  0  0  0  0  0
   -1.9398   -0.2920    0.0000 C   0  0  0  0  0  0  0  0  0
   -1.9398   -1.1170    0.0000 C   0  0  0  0  0  0  0  0  0
   -1.2253   -1.5295    0.0000 C   0  0  0  0  0  0  0  0  0
   -0.5109   -1.1170    0.0000 O   0  0  0  0  0  0  0  0  0
   -1.2253   -2.3545    0.0000 N   0  0  0  0  0  0  0  0  0
   -0.5109   -2.7670    0.0000 C   0  0  0  0  0  0  0  0  0
   -0.5109   -3.5920    0.0000 C   0  0  0  0  0  0  0  0  0
    0.1566   -4.0770    0.0000 N   0  0  0  0  0  0  0  0  0
   -0.0984   -4.8616    0.0000 C   0  0  0  0  0  0  0  0  0
   -0.9234   -4.8616    0.0000 C   0  0  0  0  0  0  0  0  0
   -1.1783   -4.0770    0.0000 C   0  0  0  0  0  0  0  0  0
    0.9412   -3.8220    0.0000 C   0  0  0  0  0  0  0  0  0
    1.1127   -3.0150    0.0000 C   0  0  0  0  0  0  0  0  0
   -2.6543   -1.5295    0.0000 C   0  0  0  0  0  0  0  0  0
   -2.6543   -2.3545    0.0000 O   0  0  0  0  0  0  0  0  0
   -3.3687   -2.7670    0.0000 C   0  0  0  0  0  0  0  0  0
   -3.3687   -1.1170    0.0000 C   0  0  0  0  0  0  0  0  0
   -3.3687   -0.2920    0.0000 C   0  0  0  0  0  0  0  0  0
  1  2  2  0  0  0  0
  1  3  2  0  0  0  0
  1  4  1  0  0  0  0
  1  5  1  0  0  0  0
  5  6  4  0  0  0  0
  5 23  4  0  0  0  0
  6  7  4  0  0  0  0
  7  8  1  0  0  0  0
  7 19  4  0  0  0  0
  8  9  2  0  0  0  0
  8 10  1  0  0  0  0
 10 11  1  0  0  0  0
 11 12  1  0  0  0  0
 12 13  1  0  0  0  0
 12 16  1  0  0  0  0
 13 14  1  0  0  0  0
 13 17  1  0  0  0  0
 14 15  1  0  0  0  0
 15 16  1  0  0  0  0
 17 18  1  0  0  0  0
 19 20  1  0  0  0  0
 19 22  4  0  0  0  0
 20 21  1  0  0  0  0
 22 23  4  0  0  0  0
M  END
>  <Name_Molregno>
SULPIRIDE

>  <5-HT1A>
5

>  <5-HT3>
5

>  <DOPAMINE D1>
5

>  <DOPAMINE D2>
7.23

>  <DOPAMINE D3>
7.64

>  <DOPAMINE D4>
6.54

>  <DOPAMINE D5>
5

$$$$
Sulpiride-S
  Marvin  02231216192D 0   1.00000     0.00000     0

 14 14  0  0  0  0  0  0  0  0999 V2000
    3.1762   -1.8675    0.0000 O   0  0  0  0  0  0  0  0  0
    3.1762   -1.0425    0.0000 C   0  0  0  0  0  0  0  0  0
    2.4617   -0.6300    0.0000 C   0  0  0  0  0  0  0  0  0
    1.7473   -1.0425    0.0000 C   0  0  0  0  0  0  0  0  0
    1.0328   -0.6300    0.0000 O   0  0  0  0  0  0  0  0  0
    2.4617    0.1950    0.0000 C   0  0  0  0  0  0  0  0  0
    1.7473    0.6075    0.0000 C   0  0  0  0  0  0  0  0  0
    1.7473    1.4325    0.0000 C   0  0  0  0  0  0  0  0  0
    2.4617    1.8450    0.0000 C   0  0  0  0  0  0  0  0  0
    2.4617    2.6700    0.0000 N   0  3  0  0  0  0  0  0  0
    1.7473    3.0825    0.0000 O   0  5  0  0  0  0  0  0  0
    3.1762    3.0825    0.0000 O   0  5  0  0  0  0  0  0  0
    3.1762    1.4325    0.0000 C   0  0  0  0  0  0  0  0  0
    3.1762    0.6075    0.0000 C   0  0  0  0  0  0  0  0  0
  1  2  2  0  0  0  0
  2  3  1  0  0  0  0
  3  4  1  0  0  0  0
  3  6  1  0  0  0  0
  4  5  2  0  0  0  0
  6  7  4  0  0  0  0
  6 14  4  0  0  0  0
  7  8  4  0  0  0  0
  8  9  4  0  0  0  0
  9 10  1  0  0  0  0
  9 13  4  0  0  0  0
 10 11  1  0  0  0  0
 10 12  1  0  0  0  0
 13 14  4  0  0  0  0
M  CHG  3  10   1  11  -1  12  -1
M  END
>  <Name_Molregno>
Sulpiride-S

>  <DOPAMINE D2>
7.89

>  <DOPAMINE D3>
7.94

>  <DOPAMINE D4>
6.27

$$$$
tefludazine
  Marvin  02231216192D 0   1.00000     0.00000     0

 29 32  0  0  1  0  0  0  0  0999 V2000
    2.9970    4.2461    0.0000 F   0  0  0  0  0  0  0  0  0
    3.2520    3.4614    0.0000 C   0  0  0  0  0  0  0  0  0
    4.0590    3.2899    0.0000 C   0  0  0  0  0  0  0  0  0
    4.3139    2.5053    0.0000 C   0  0  0  0  0  0  0  0  0
    3.7619    1.8922    0.0000 C   0  0  0  0  0  0  0  0  0
    2.9549    2.0637    0.0000 C   0  0  0  0  0  0  0  0  0
    2.7000    2.8483    0.0000 C   0  0  0  0  0  0  0  0  0
    4.0168    1.1076    0.0000 C   0  0  0  0  0  0  0  0  0
    3.5319    0.4401    0.0000 C   0  0  0  0  0  0  0  0  0
    4.0168   -0.2273    0.0000 C   0  0  0  0  0  0  0  0  0
    3.7619   -1.0119    0.0000 N   0  0  0  0  0  0  0  0  0
    4.3139   -1.6250    0.0000 C   0  0  0  0  0  0  0  0  0
    4.0590   -2.4096    0.0000 C   0  0  0  0  0  0  0  0  0
    3.2520   -2.5812    0.0000 N   0  0  0  0  0  0  0  0  0
    2.7000   -1.9681    0.0000 C   0  0  0  0  0  0  0  0  0
    2.9549   -1.1835    0.0000 C   0  0  0  0  0  0  0  0  0
    2.9970   -3.3658    0.0000 C   0  0  0  0  0  0  0  0  0
    2.1901   -3.5373    0.0000 C   0  0  0  0  0  0  0  0  0
    1.9351   -4.3219    0.0000 O   0  0  0  0  0  0  0  0  0
    4.8014    0.0276    0.0000 C   0  0  0  0  0  0  0  0  0
    4.8014    0.8526    0.0000 C   0  0  0  0  0  0  0  0  0
    5.5159    1.2651    0.0000 C   0  0  0  0  0  0  0  0  0
    6.2304    0.8526    0.0000 C   0  0  0  0  0  0  0  0  0
    6.2304    0.0276    0.0000 C   0  0  0  0  0  0  0  0  0
    5.5159   -0.3849    0.0000 C   0  0  0  0  0  0  0  0  0
    6.9448   -0.3849    0.0000 C   0  0  0  0  0  0  0  0  0
    7.6593   -0.7974    0.0000 F   0  0  0  0  0  0  0  0  0
    6.5323   -1.0993    0.0000 F   0  0  0  0  0  0  0  0  0
    7.3573    0.3296    0.0000 F   0  0  0  0  0  0  0  0  0
  1  2  1  0  0  0  0
  2  3  4  0  0  0  0
  2  7  4  0  0  0  0
  3  4  4  0  0  0  0
  4  5  4  0  0  0  0
  5  6  4  0  0  0  0
  5  8  1  0  0  0  0
  6  7  4  0  0  0  0
  8  9  1  0  0  0  0
  8 21  1  0  0  0  0
  9 10  1  0  0  0  0
 10 11  1  0  0  0  0
 10 20  1  0  0  0  0
 11 12  1  0  0  0  0
 11 16  1  0  0  0  0
 12 13  1  0  0  0  0
 13 14  1  0  0  0  0
 14 15  1  0  0  0  0
 14 17  1  0  0  0  0
 15 16  1  0  0  0  0
 17 18  1  0  0  0  0
 18 19  1  0  0  0  0
 20 21  4  0  0  0  0
 20 25  4  0  0  0  0
 21 22  4  0  0  0  0
 22 23  4  0  0  0  0
 23 24  4  0  0  0  0
 24 25  4  0  0  0  0
 24 26  1  0  0  0  0
 26 27  1  0  0  0  0
 26 28  1  0  0  0  0
 26 29  1  0  0  0  0
M  END
>  <Name_Molregno>
tefludazine

>  <DOPAMINE D2>
9.34

>  <DOPAMINE D3>
9

>  <DOPAMINE D4>
8.35

$$$$
TERGURIDE
  Marvin  02231216192D 0   1.00000     0.00000     0

 25 28  0  0  1  0  0  0  0  0999 V2000
   -0.3965   -3.1617    0.0000 O   0  0  0  0  0  0  0  0  0
    0.3175   -3.5751    0.0000 C   0  0  0  0  0  0  0  0  0
    1.0325   -3.1634    0.0000 N   0  0  0  0  0  0  0  0  0
    1.0334   -2.3384    0.0000 C   0  0  0  0  0  0  0  0  0
    1.7484   -1.9268    0.0000 C   0  0  0  0  0  0  0  0  0
    1.7494   -1.1018    0.0000 C   0  0  0  0  0  0  0  0  0
    1.0354   -0.6884    0.0000 C   0  0  0  0  0  0  0  0  0
    0.3205   -1.1001    0.0000 N   0  0  0  0  0  0  0  0  0
    0.3195   -1.9251    0.0000 C   0  0  0  0  0  0  0  0  0
   -0.3935   -0.6867    0.0000 C   0  0  0  0  0  0  0  0  0
    1.0369    0.1357    0.0000 C   0  0  0  0  0  0  0  0  0
    1.7494    0.5482    0.0000 C   0  0  0  0  0  0  0  0  0
    2.4619    0.1357    0.0000 C   0  0  0  0  0  0  0  0  0
    2.4619   -0.6893    0.0000 C   0  0  0  0  0  0  0  0  0
    3.1798   -1.1018    0.0000 C   0  0  0  0  0  0  0  0  0
    3.8923   -0.6893    0.0000 C   0  0  0  0  0  0  0  0  0
    3.8923    0.1357    0.0000 C   0  0  0  0  0  0  0  0  0
    3.1798    0.5482    0.0000 C   0  0  0  0  0  0  0  0  0
    2.8744    1.4054    0.0000 N   0  0  0  0  0  0  0  0  0
    2.0494    1.4054    0.0000 C   0  0  0  0  0  0  0  0  0
    0.3165   -4.4001    0.0000 N   0  0  0  0  0  0  0  0  0
   -0.3985   -4.8117    0.0000 C   0  0  0  0  0  0  0  0  0
   -0.3994   -5.6367    0.0000 C   0  0  0  0  0  0  0  0  0
    1.0305   -4.8134    0.0000 C   0  0  0  0  0  0  0  0  0
    1.0295   -5.6384    0.0000 C   0  0  0  0  0  0  0  0  0
  1  2  2  0  0  0  0
  2  3  1  0  0  0  0
  2 21  1  0  0  0  0
  3  4  1  0  0  0  0
  4  5  1  0  0  0  0
  4  9  1  0  0  0  0
  5  6  1  0  0  0  0
  6  7  1  0  0  0  0
  6 14  1  0  0  0  0
  7  8  1  0  0  0  0
  7 11  1  0  0  0  0
  8  9  1  0  0  0  0
  8 10  1  0  0  0  0
 11 12  1  0  0  0  0
 12 13  4  0  0  0  0
 12 20  4  0  0  0  0
 13 14  4  0  0  0  0
 13 18  4  0  0  0  0
 14 15  4  0  0  0  0
 15 16  4  0  0  0  0
 16 17  4  0  0  0  0
 17 18  4  0  0  0  0
 18 19  4  0  0  0  0
 19 20  4  0  0  0  0
 21 22  1  0  0  0  0
 21 24  1  0  0  0  0
 22 23  1  0  0  0  0
 24 25  1  0  0  0  0
M  STY  1   1 DAT
M  SAL   1  1  19
M  SDT   1 MRV_IMPLICIT_H                                        
M  SDD   1     0.0000    0.0000    DR    ALL  0       0  
M  SED   1 IMPL_H1
M  END
>  <Name_Molregno>
TERGURIDE

>  <5-HT1A>
8.46

>  <5-HT1B>
6.59

>  <5-HT1D>
7.79

>  <5-HT2A>
8.32

>  <5-HT2C>
7.32

>  <Alpha-1A>
8.45

>  <Alpha-1B>
7.46

>  <Alpha-2A>
9.53

>  <Alpha-2B>
9.35

>  <Alpha-2C>
9.12

>  <Beta-1>
6.18

>  <Beta-2>
7.7

>  <DOPAMINE D1>
7.55

>  <DOPAMINE D2>
9.06

>  <DOPAMINE D3>
9

>  <DOPAMINE D4>
8.18

>  <DOPAMINE D5>
7.63

$$$$
THIORIDAZINE
  Marvin  02231216192D 0   1.00000     0.00000     0

 25 28  0  0  1  0  0  0  0  0999 V2000
    1.0601   -0.3753    0.0000 S   0  0  0  0  0  0  0  0  0
    1.7746    0.0372    0.0000 C   0  0  0  0  0  0  0  0  0
    1.7746    0.8622    0.0000 C   0  0  0  0  0  0  0  0  0
    1.0601    1.2747    0.0000 N   0  0  0  0  0  0  0  0  0
    0.3456    0.8622    0.0000 C   0  0  0  0  0  0  0  0  0
    0.3456    0.0372    0.0000 C   0  0  0  0  0  0  0  0  0
   -0.3689   -0.3753    0.0000 C   0  0  0  0  0  0  0  0  0
   -1.0833    0.0372    0.0000 C   0  0  0  0  0  0  0  0  0
   -1.0833    0.8622    0.0000 C   0  0  0  0  0  0  0  0  0
   -0.3689    1.2747    0.0000 C   0  0  0  0  0  0  0  0  0
    1.0601    2.0997    0.0000 C   0  0  0  0  0  0  0  0  0
    0.3456    2.5122    0.0000 C   0  0  0  0  0  0  0  0  0
    0.3456    3.3372    0.0000 C   0  0  0  0  0  0  0  0  0
   -0.3689    3.7497    0.0000 N   0  0  0  0  0  0  0  0  0
   -0.3689    4.5747    0.0000 C   0  0  0  0  0  0  0  0  0
    0.3456    4.9872    0.0000 C   0  0  0  0  0  0  0  0  0
    1.0601    4.5747    0.0000 C   0  0  0  0  0  0  0  0  0
    1.0601    3.7497    0.0000 C   0  0  0  0  0  0  0  0  0
   -1.0833    3.3372    0.0000 C   0  0  0  0  0  0  0  0  0
    2.4890    1.2747    0.0000 C   0  0  0  0  0  0  0  0  0
    3.2035    0.8622    0.0000 C   0  0  0  0  0  0  0  0  0
    3.9180    1.2747    0.0000 S   0  0  0  0  0  0  0  0  0
    3.9180    2.0997    0.0000 C   0  0  0  0  0  0  0  0  0
    3.2035    0.0372    0.0000 C   0  0  0  0  0  0  0  0  0
    2.4890   -0.3753    0.0000 C   0  0  0  0  0  0  0  0  0
  1  2  1  0  0  0  0
  1  6  1  0  0  0  0
  2  3  4  0  0  0  0
  2 25  4  0  0  0  0
  3  4  1  0  0  0  0
  3 20  4  0  0  0  0
  4  5  1  0  0  0  0
  4 11  1  0  0  0  0
  5  6  4  0  0  0  0
  5 10  4  0  0  0  0
  6  7  4  0  0  0  0
  7  8  4  0  0  0  0
  8  9  4  0  0  0  0
  9 10  4  0  0  0  0
 11 12  1  0  0  0  0
 12 13  1  0  0  0  0
 13 14  1  0  0  0  0
 13 18  1  0  0  0  0
 14 15  1  0  0  0  0
 14 19  1  0  0  0  0
 15 16  1  0  0  0  0
 16 17  1  0  0  0  0
 17 18  1  0  0  0  0
 20 21  4  0  0  0  0
 21 22  1  0  0  0  0
 21 24  4  0  0  0  0
 22 23  1  0  0  0  0
 24 25  4  0  0  0  0
M  END
>  <Name_Molregno>
THIORIDAZINE

>  <5-HT1A>
6.85

>  <5-HT1B>
6.96

>  <5-HT1D>
6.24

>  <5-HT1E>
6.71

>  <5-HT2A>
7.95

>  <5-HT2C>
7.28

>  <5-HT3>
5

>  <5-HT5>
6.44

>  <5-HT6>
7.24

>  <5-HT7>
7.05

>  <Alpha-1A>
8.6

>  <Alpha-1B>
8.62

>  <Alpha-2A>
6.87

>  <Alpha-2B>
6.47

>  <Alpha-2C>
7.13

>  <Beta-1>
5

>  <Beta-2>
5

>  <DOPAMINE D1>
7.03

>  <DOPAMINE D2>
8.31

>  <DOPAMINE D3>
8.59

>  <DOPAMINE D4>
8.21

>  <DOPAMINE D5>
6.6

>  <Dopamine transporter>
5.77

>  <HISTAMINE H1>
7.79

>  <HISTAMINE H2>
6.87

>  <HISTAMINE H4>
5.62

>  <Muscarinic acetylcholine receptor M1>
8.21

>  <Muscarinic acetylcholine receptor M2>
7.26

>  <Muscarinic acetylcholine receptor M3>
7.6

>  <Muscarinic acetylcholine receptor M4>
7.38

>  <Muscarinic acetylcholine receptor M5>
7.9

>  <Norepinephrine transporter>
6.07

>  <Serotonin transporter>
5.9

$$$$
Tiapride
  Marvin  02231216192D 0   1.00000     0.00000     0

 22 22  0  0  0  0  0  0  0  0999 V2000
   -4.5785    0.9169    0.0000 S   0  0  0  0  0  0  0  0  0
   -4.9910    1.6313    0.0000 O   0  0  0  0  0  0  0  0  0
   -5.2929    0.5044    0.0000 O   0  0  0  0  0  0  0  0  0
   -3.8640    1.3294    0.0000 C   0  0  0  0  0  0  0  0  0
   -4.1660    0.2024    0.0000 C   0  0  0  0  0  0  0  0  0
   -3.3410    0.2024    0.0000 C   0  0  0  0  0  0  0  0  0
   -2.9285   -0.5121    0.0000 C   0  0  0  0  0  0  0  0  0
   -2.1035   -0.5121    0.0000 C   0  0  0  0  0  0  0  0  0
   -1.6910    0.2024    0.0000 O   0  0  0  0  0  0  0  0  0
   -1.6910   -1.2265    0.0000 N   0  0  0  0  0  0  0  0  0
   -0.8660   -1.2265    0.0000 C   0  0  0  0  0  0  0  0  0
   -0.4535   -1.9410    0.0000 C   0  0  0  0  0  0  0  0  0
    0.3715   -1.9410    0.0000 N   0  0  0  0  0  0  0  0  0
    0.7840   -2.6555    0.0000 C   0  0  0  0  0  0  0  0  0
    1.6090   -2.6555    0.0000 C   0  0  0  0  0  0  0  0  0
    0.7840   -1.2265    0.0000 C   0  0  0  0  0  0  0  0  0
    1.6090   -1.2265    0.0000 C   0  0  0  0  0  0  0  0  0
   -3.3410   -1.2265    0.0000 C   0  0  0  0  0  0  0  0  0
   -2.9285   -1.9410    0.0000 O   0  0  0  0  0  0  0  0  0
   -3.3410   -2.6555    0.0000 C   0  0  0  0  0  0  0  0  0
   -4.1660   -1.2265    0.0000 C   0  0  0  0  0  0  0  0  0
   -4.5785   -0.5121    0.0000 C   0  0  0  0  0  0  0  0  0
  1  2  2  0  0  0  0
  1  3  2  0  0  0  0
  1  4  1  0  0  0  0
  1  5  1  0  0  0  0
  5  6  4  0  0  0  0
  5 22  4  0  0  0  0
  6  7  4  0  0  0  0
  7  8  1  0  0  0  0
  7 18  4  0  0  0  0
  8  9  2  0  0  0  0
  8 10  1  0  0  0  0
 10 11  1  0  0  0  0
 11 12  1  0  0  0  0
 12 13  1  0  0  0  0
 13 14  1  0  0  0  0
 13 16  1  0  0  0  0
 14 15  1  0  0  0  0
 16 17  1  0  0  0  0
 18 19  1  0  0  0  0
 18 21  4  0  0  0  0
 19 20  1  0  0  0  0
 21 22  4  0  0  0  0
M  END
>  <Name_Molregno>
Tiapride

>  <DOPAMINE D2>
7.08

>  <DOPAMINE D3>
6.75

>  <DOPAMINE D4>
7.85

$$$$
TRAZODONE
  Marvin  02231216192D 0   1.00000     0.00000     0

 26 29  0  0  0  0  0  0  0  0999 V2000
    0.6158   -2.7707    0.0000 Cl  0  0  0  0  0  0  0  0  0
    1.4408   -2.7707    0.0000 C   0  0  0  0  0  0  0  0  0
    1.8533   -2.0563    0.0000 C   0  0  0  0  0  0  0  0  0
    2.6783   -2.0563    0.0000 C   0  0  0  0  0  0  0  0  0
    3.0908   -1.3418    0.0000 N   0  0  0  0  0  0  0  0  0
    2.6783   -0.6273    0.0000 C   0  0  0  0  0  0  0  0  0
    3.0908    0.0872    0.0000 C   0  0  0  0  0  0  0  0  0
    3.9158    0.0872    0.0000 N   0  0  0  0  0  0  0  0  0
    4.3283   -0.6273    0.0000 C   0  0  0  0  0  0  0  0  0
    3.9158   -1.3418    0.0000 C   0  0  0  0  0  0  0  0  0
    4.3283    0.8016    0.0000 C   0  0  0  0  0  0  0  0  0
    5.1533    0.8016    0.0000 C   0  0  0  0  0  0  0  0  0
    5.5658    1.5161    0.0000 C   0  0  0  0  0  0  0  0  0
    6.3908    1.5161    0.0000 N   0  0  0  0  0  0  0  0  0
    6.8757    0.8487    0.0000 N   0  0  0  0  0  0  0  0  0
    7.6604    1.1036    0.0000 C   0  0  0  0  0  0  0  0  0
    7.6604    1.9286    0.0000 N   0  0  0  0  0  0  0  0  0
    8.3748    2.3411    0.0000 C   0  0  0  0  0  0  0  0  0
    9.0893    1.9286    0.0000 C   0  0  0  0  0  0  0  0  0
    9.0893    1.1036    0.0000 C   0  0  0  0  0  0  0  0  0
    8.3748    0.6911    0.0000 C   0  0  0  0  0  0  0  0  0
    6.8757    2.1835    0.0000 C   0  0  0  0  0  0  0  0  0
    6.6208    2.9682    0.0000 O   0  0  0  0  0  0  0  0  0
    3.0908   -2.7707    0.0000 C   0  0  0  0  0  0  0  0  0
    2.6783   -3.4852    0.0000 C   0  0  0  0  0  0  0  0  0
    1.8533   -3.4852    0.0000 C   0  0  0  0  0  0  0  0  0
  1  2  1  0  0  0  0
  2  3  4  0  0  0  0
  2 26  4  0  0  0  0
  3  4  4  0  0  0  0
  4  5  1  0  0  0  0
  4 24  4  0  0  0  0
  5  6  1  0  0  0  0
  5 10  1  0  0  0  0
  6  7  1  0  0  0  0
  7  8  1  0  0  0  0
  8  9  1  0  0  0  0
  8 11  1  0  0  0  0
  9 10  1  0  0  0  0
 11 12  1  0  0  0  0
 12 13  1  0  0  0  0
 13 14  1  0  0  0  0
 14 15  1  0  0  0  0
 14 22  1  0  0  0  0
 15 16  2  0  0  0  0
 16 17  1  0  0  0  0
 16 21  1  0  0  0  0
 17 18  1  0  0  0  0
 17 22  1  0  0  0  0
 18 19  2  0  0  0  0
 19 20  1  0  0  0  0
 20 21  2  0  0  0  0
 22 23  2  0  0  0  0
 24 25  4  0  0  0  0
 25 26  4  0  0  0  0
M  END
>  <Name_Molregno>
TRAZODONE

>  <5-HT1A>
6.97

>  <5-HT1B>
5

>  <5-HT1D>
6.97

>  <5-HT1E>
5

>  <5-HT2A>
7.46

>  <5-HT2C>
6.65

>  <5-HT3>
5

>  <5-HT5>
5

>  <5-HT6>
5

>  <5-HT7>
5.75

>  <Alpha-1A>
6.82

>  <Alpha-2A>
6.14

>  <Alpha-2C>
6.81

>  <Beta-1>
5

>  <Beta-2>
5

>  <DOPAMINE D1>
5.43

>  <DOPAMINE D2>
5.42

>  <DOPAMINE D4>
6.15

>  <DOPAMINE D5>
5

>  <Dopamine transporter>
5.07

>  <HISTAMINE H1>
6.31

>  <HISTAMINE H2>
5.48

>  <HISTAMINE H4>
5

>  <Muscarinic acetylcholine receptor M1>
5

>  <Muscarinic acetylcholine receptor M2>
5

>  <Muscarinic acetylcholine receptor M3>
5

>  <Muscarinic acetylcholine receptor M4>
5

>  <Muscarinic acetylcholine receptor M5>
5

>  <Norepinephrine transporter>
5.02

>  <Serotonin transporter>
6.14

$$$$
TRIFLUOPERAZINE
  Marvin  02231216192D 0   1.00000     0.00000     0

 28 31  0  0  0  0  0  0  0  0999 V2000
   -1.0248   -3.8592    0.0000 S   0  0  0  0  0  0  0  0  0
   -0.3103   -3.4467    0.0000 C   0  0  0  0  0  0  0  0  0
   -0.3103   -2.6217    0.0000 C   0  0  0  0  0  0  0  0  0
   -1.0248   -2.2092    0.0000 N   0  0  0  0  0  0  0  0  0
   -1.7393   -2.6217    0.0000 C   0  0  0  0  0  0  0  0  0
   -1.7393   -3.4467    0.0000 C   0  0  0  0  0  0  0  0  0
   -2.4538   -3.8592    0.0000 C   0  0  0  0  0  0  0  0  0
   -3.1682   -3.4467    0.0000 C   0  0  0  0  0  0  0  0  0
   -3.1682   -2.6217    0.0000 C   0  0  0  0  0  0  0  0  0
   -2.4538   -2.2092    0.0000 C   0  0  0  0  0  0  0  0  0
   -1.0248   -1.3842    0.0000 C   0  0  0  0  0  0  0  0  0
   -1.7393   -0.9717    0.0000 C   0  0  0  0  0  0  0  0  0
   -1.7393   -0.1467    0.0000 C   0  0  0  0  0  0  0  0  0
   -2.4538    0.2658    0.0000 N   0  0  0  0  0  0  0  0  0
   -3.1682   -0.1467    0.0000 C   0  0  0  0  0  0  0  0  0
   -3.8827    0.2658    0.0000 C   0  0  0  0  0  0  0  0  0
   -3.8827    1.0908    0.0000 N   0  0  0  0  0  0  0  0  0
   -3.1682    1.5033    0.0000 C   0  0  0  0  0  0  0  0  0
   -2.4538    1.0908    0.0000 C   0  0  0  0  0  0  0  0  0
   -4.5972    1.5033    0.0000 C   0  0  0  0  0  0  0  0  0
    0.4041   -2.2092    0.0000 C   0  0  0  0  0  0  0  0  0
    1.1186   -2.6217    0.0000 C   0  0  0  0  0  0  0  0  0
    1.1186   -3.4467    0.0000 C   0  0  0  0  0  0  0  0  0
    0.4041   -3.8592    0.0000 C   0  0  0  0  0  0  0  0  0
    1.8331   -2.2092    0.0000 C   0  0  0  0  0  0  0  0  0
    2.5475   -1.7967    0.0000 F   0  0  0  0  0  0  0  0  0
    2.2456   -2.9236    0.0000 F   0  0  0  0  0  0  0  0  0
    1.4206   -1.4947    0.0000 F   0  0  0  0  0  0  0  0  0
  1  2  1  0  0  0  0
  1  6  1  0  0  0  0
  2  3  4  0  0  0  0
  2 24  4  0  0  0  0
  3  4  1  0  0  0  0
  3 21  4  0  0  0  0
  4  5  1  0  0  0  0
  4 11  1  0  0  0  0
  5  6  4  0  0  0  0
  5 10  4  0  0  0  0
  6  7  4  0  0  0  0
  7  8  4  0  0  0  0
  8  9  4  0  0  0  0
  9 10  4  0  0  0  0
 11 12  1  0  0  0  0
 12 13  1  0  0  0  0
 13 14  1  0  0  0  0
 14 15  1  0  0  0  0
 14 19  1  0  0  0  0
 15 16  1  0  0  0  0
 16 17  1  0  0  0  0
 17 18  1  0  0  0  0
 17 20  1  0  0  0  0
 18 19  1  0  0  0  0
 21 22  4  0  0  0  0
 22 23  4  0  0  0  0
 22 25  1  0  0  0  0
 23 24  4  0  0  0  0
 25 26  1  0  0  0  0
 25 27  1  0  0  0  0
 25 28  1  0  0  0  0
M  END
>  <Name_Molregno>
TRIFLUOPERAZINE

>  <5-HT1A>
6.02

>  <5-HT2A>
7.78

>  <5-HT2C>
6.42

>  <5-HT6>
6.85

>  <5-HT7>
6.54

>  <Alpha-1A>
7.62

>  <Alpha-2A>
6.18

>  <Alpha-2B>
6.79

>  <Alpha-2C>
6.41

>  <DOPAMINE D2>
8.75

>  <DOPAMINE D3>
9.22

>  <DOPAMINE D4>
7.24

>  <HISTAMINE H1>
7.2

>  <Muscarinic acetylcholine receptor M3>
6

$$$$
TRIFLUORPERIDOL
  Marvin  02231216192D 0   1.00000     0.00000     0

 29 31  0  0  0  0  0  0  0  0999 V2000
    0.4425    2.3016    0.0000 F   0  0  0  0  0  0  0  0  0
    1.1570    1.8891    0.0000 C   0  0  0  0  0  0  0  0  0
    1.8715    2.3016    0.0000 C   0  0  0  0  0  0  0  0  0
    2.5859    1.8891    0.0000 C   0  0  0  0  0  0  0  0  0
    2.5859    1.0641    0.0000 C   0  0  0  0  0  0  0  0  0
    1.8715    0.6516    0.0000 C   0  0  0  0  0  0  0  0  0
    1.1570    1.0641    0.0000 C   0  0  0  0  0  0  0  0  0
    3.3004    0.6516    0.0000 C   0  0  0  0  0  0  0  0  0
    3.3004   -0.1734    0.0000 O   0  0  0  0  0  0  0  0  0
    4.0149    1.0641    0.0000 C   0  0  0  0  0  0  0  0  0
    4.7293    0.6516    0.0000 C   0  0  0  0  0  0  0  0  0
    5.4438    1.0641    0.0000 C   0  0  0  0  0  0  0  0  0
    6.1583    0.6516    0.0000 N   0  0  0  0  0  0  0  0  0
    6.8727    1.0641    0.0000 C   0  0  0  0  0  0  0  0  0
    7.5872    0.6516    0.0000 C   0  0  0  0  0  0  0  0  0
    7.5872   -0.1734    0.0000 C   0  0  0  0  0  0  0  0  0
    8.3997   -0.0301    0.0000 O   0  0  0  0  0  0  0  0  0
    6.8727   -0.5859    0.0000 C   0  0  0  0  0  0  0  0  0
    6.1583   -0.1734    0.0000 C   0  0  0  0  0  0  0  0  0
    7.8694   -0.9486    0.0000 C   0  0  0  0  0  0  0  0  0
    8.6819   -1.0919    0.0000 C   0  0  0  0  0  0  0  0  0
    8.9640   -1.8671    0.0000 C   0  0  0  0  0  0  0  0  0
    8.4337   -2.4991    0.0000 C   0  0  0  0  0  0  0  0  0
    7.6213   -2.3559    0.0000 C   0  0  0  0  0  0  0  0  0
    7.3391   -1.5806    0.0000 C   0  0  0  0  0  0  0  0  0
    9.7765   -2.0104    0.0000 C   0  0  0  0  0  0  0  0  0
   10.5890   -2.1537    0.0000 F   0  0  0  0  0  0  0  0  0
    9.6332   -2.8229    0.0000 F   0  0  0  0  0  0  0  0  0
    9.9197   -1.1979    0.0000 F   0  0  0  0  0  0  0  0  0
  1  2  1  0  0  0  0
  2  3  4  0  0  0  0
  2  7  4  0  0  0  0
  3  4  4  0  0  0  0
  4  5  4  0  0  0  0
  5  6  4  0  0  0  0
  5  8  1  0  0  0  0
  6  7  4  0  0  0  0
  8  9  2  0  0  0  0
  8 10  1  0  0  0  0
 10 11  1  0  0  0  0
 11 12  1  0  0  0  0
 12 13  1  0  0  0  0
 13 14  1  0  0  0  0
 13 19  1  0  0  0  0
 14 15  1  0  0  0  0
 15 16  1  0  0  0  0
 16 17  1  0  0  0  0
 16 18  1  0  0  0  0
 16 20  1  0  0  0  0
 18 19  1  0  0  0  0
 20 21  4  0  0  0  0
 20 25  4  0  0  0  0
 21 22  4  0  0  0  0
 22 23  4  0  0  0  0
 22 26  1  0  0  0  0
 23 24  4  0  0  0  0
 24 25  4  0  0  0  0
 26 27  1  0  0  0  0
 26 28  1  0  0  0  0
 26 29  1  0  0  0  0
M  END
>  <Name_Molregno>
TRIFLUORPERIDOL

>  <DOPAMINE D2>
9.55

>  <DOPAMINE D3>
8.42

>  <DOPAMINE D4>
7.97

$$$$
U-101387
  Marvin  02231216192D 0   1.00000     0.00000     0

 28 31  0  0  1  0  0  0  0  0999 V2000
   -4.8510    3.8791    0.0000 S   0  0  0  0  0  0  0  0  0
   -4.8510    4.7041    0.0000 O   0  0  0  0  0  0  0  0  0
   -5.6760    3.8791    0.0000 O   0  0  0  0  0  0  0  0  0
   -4.0260    3.8791    0.0000 N   0  0  0  0  0  0  0  0  0
   -4.8510    3.0541    0.0000 C   0  0  0  0  0  0  0  0  0
   -4.1365    2.6416    0.0000 C   0  0  0  0  0  0  0  0  0
   -4.1365    1.8166    0.0000 C   0  0  0  0  0  0  0  0  0
   -4.8510    1.4041    0.0000 C   0  0  0  0  0  0  0  0  0
   -4.8510    0.5791    0.0000 N   0  0  0  0  0  0  0  0  0
   -4.1365    0.1666    0.0000 C   0  0  0  0  0  0  0  0  0
   -4.1365   -0.6584    0.0000 C   0  0  0  0  0  0  0  0  0
   -4.8510   -1.0709    0.0000 N   0  0  0  0  0  0  0  0  0
   -5.5655   -0.6584    0.0000 C   0  0  0  0  0  0  0  0  0
   -5.5655    0.1666    0.0000 C   0  0  0  0  0  0  0  0  0
   -4.8510   -1.8959    0.0000 C   0  0  0  0  0  0  0  0  0
   -4.1365   -2.3084    0.0000 C   0  0  0  0  0  0  0  0  0
   -4.1365   -3.1334    0.0000 C   0  0  0  0  0  0  0  0  0
   -4.8510   -3.5459    0.0000 O   0  0  0  0  0  0  0  0  0
   -4.8510   -4.3709    0.0000 C   0  0  0  0  0  0  0  0  0
   -4.1365   -4.7834    0.0000 C   0  0  0  0  0  0  0  0  0
   -3.4221   -4.3709    0.0000 C   0  0  0  0  0  0  0  0  0
   -3.4221   -3.5459    0.0000 C   0  0  0  0  0  0  0  0  0
   -2.7076   -3.1334    0.0000 C   0  0  0  0  0  0  0  0  0
   -1.9931   -3.5459    0.0000 C   0  0  0  0  0  0  0  0  0
   -1.9931   -4.3709    0.0000 C   0  0  0  0  0  0  0  0  0
   -2.7076   -4.7834    0.0000 C   0  0  0  0  0  0  0  0  0
   -5.5655    1.8166    0.0000 C   0  0  0  0  0  0  0  0  0
   -5.5655    2.6416    0.0000 C   0  0  0  0  0  0  0  0  0
  1  2  2  0  0  0  0
  1  3  2  0  0  0  0
  1  4  1  0  0  0  0
  1  5  1  0  0  0  0
  5  6  4  0  0  0  0
  5 28  4  0  0  0  0
  6  7  4  0  0  0  0
  7  8  4  0  0  0  0
  8  9  1  0  0  0  0
  8 27  4  0  0  0  0
  9 10  1  0  0  0  0
  9 14  1  0  0  0  0
 10 11  1  0  0  0  0
 11 12  1  0  0  0  0
 12 13  1  0  0  0  0
 12 15  1  0  0  0  0
 13 14  1  0  0  0  0
 15 16  1  0  0  0  0
 16 17  1  0  0  0  0
 17 18  1  0  0  0  0
 17 22  1  0  0  0  0
 18 19  1  0  0  0  0
 19 20  1  0  0  0  0
 20 21  1  0  0  0  0
 21 22  4  0  0  0  0
 21 26  4  0  0  0  0
 22 23  4  0  0  0  0
 23 24  4  0  0  0  0
 24 25  4  0  0  0  0
 25 26  4  0  0  0  0
 27 28  4  0  0  0  0
M  END
>  <Name_Molregno>
U-101387

>  <5-HT1A>
5.46

>  <5-HT6>
5

>  <DOPAMINE D4>
8

$$$$
UH232
  Marvin  02231216192D 0   1.00000     0.00000     0

 20 21  0  0  1  0  0  0  0  0999 V2000
   -1.5022   -1.5972    0.0000 O   0  0  0  0  0  0  0  0  0
   -1.5022   -2.4222    0.0000 C   0  0  0  0  0  0  0  0  0
   -2.2166   -1.1847    0.0000 C   0  0  0  0  0  0  0  0  0
   -2.2166   -0.3597    0.0000 C   0  0  0  0  0  0  0  0  0
   -2.9311    0.0528    0.0000 C   0  0  0  0  0  0  0  0  0
   -3.6456   -0.3597    0.0000 C   0  0  0  0  0  0  0  0  0
   -3.6456   -1.1847    0.0000 C   0  0  0  0  0  0  0  0  0
   -2.9311   -1.5972    0.0000 C   0  0  0  0  0  0  0  0  0
   -2.9311    0.8778    0.0000 C   0  0  0  0  0  0  0  0  0
   -3.6456    1.2903    0.0000 C   0  0  0  0  0  0  0  0  0
   -2.2166    1.2903    0.0000 C   0  0  0  0  0  0  0  0  0
   -2.2166    2.1153    0.0000 N   0  0  0  0  0  0  0  0  0
   -2.9311    2.5278    0.0000 C   0  0  0  0  0  0  0  0  0
   -2.9311    3.3528    0.0000 C   0  0  0  0  0  0  0  0  0
   -3.6456    3.7653    0.0000 C   0  0  0  0  0  0  0  0  0
   -1.5022    2.5278    0.0000 C   0  0  0  0  0  0  0  0  0
   -1.5022    3.3528    0.0000 C   0  0  0  0  0  0  0  0  0
   -0.7877    3.7653    0.0000 C   0  0  0  0  0  0  0  0  0
   -1.5022    0.8778    0.0000 C   0  0  0  0  0  0  0  0  0
   -1.5022    0.0528    0.0000 C   0  0  0  0  0  0  0  0  0
  1  2  1  0  0  0  0
  1  3  1  0  0  0  0
  3  4  4  0  0  0  0
  3  8  4  0  0  0  0
  4  5  4  0  0  0  0
  4 20  1  0  0  0  0
  5  6  4  0  0  0  0
  5  9  1  0  0  0  0
  6  7  4  0  0  0  0
  7  8  4  0  0  0  0
  9 10  1  0  0  0  0
  9 11  1  0  0  0  0
 11 12  1  0  0  0  0
 11 19  1  0  0  0  0
 12 13  1  0  0  0  0
 12 16  1  0  0  0  0
 13 14  1  0  0  0  0
 14 15  1  0  0  0  0
 16 17  1  0  0  0  0
 17 18  1  0  0  0  0
 19 20  2  0  0  0  0
M  END
>  <Name_Molregno>
UH232

>  <DOPAMINE D2>
7.67

>  <DOPAMINE D3>
8.14

>  <DOPAMINE D4>
7.18

$$$$
valeryl-salicylate
  Marvin  02231216192D 0   1.00000     0.00000     0

 16 16  0  0  0  0  0  0  0  0999 V2000
   -0.4431    0.9218    0.0000 O   0  0  0  0  0  0  0  0  0
    0.2714    1.3343    0.0000 C   0  0  0  0  0  0  0  0  0
    0.2714    2.1593    0.0000 O   0  0  0  0  0  0  0  0  0
    0.9859    0.9218    0.0000 C   0  0  0  0  0  0  0  0  0
    1.7003    1.3343    0.0000 C   0  0  0  0  0  0  0  0  0
    2.4148    0.9218    0.0000 C   0  0  0  0  0  0  0  0  0
    2.4148    0.0968    0.0000 C   0  0  0  0  0  0  0  0  0
   -0.4431    0.0968    0.0000 C   0  0  0  0  0  0  0  0  0
    0.2714   -0.3157    0.0000 C   0  0  0  0  0  0  0  0  0
    0.2714   -1.1407    0.0000 C   0  0  0  0  0  0  0  0  0
   -0.4431   -1.5532    0.0000 C   0  0  0  0  0  0  0  0  0
   -1.1576   -1.1407    0.0000 C   0  0  0  0  0  0  0  0  0
   -1.1576   -0.3157    0.0000 C   0  0  0  0  0  0  0  0  0
   -1.8720    0.0968    0.0000 C   0  0  0  0  0  0  0  0  0
   -2.5865   -0.3157    0.0000 O   0  0  0  0  0  0  0  0  0
   -1.8720    0.9218    0.0000 O   0  0  0  0  0  0  0  0  0
  1  2  1  0  0  0  0
  1  8  1  0  0  0  0
  2  3  2  0  0  0  0
  2  4  1  0  0  0  0
  4  5  1  0  0  0  0
  5  6  1  0  0  0  0
  6  7  1  0  0  0  0
  8  9  4  0  0  0  0
  8 13  4  0  0  0  0
  9 10  4  0  0  0  0
 10 11  4  0  0  0  0
 11 12  4  0  0  0  0
 12 13  4  0  0  0  0
 13 14  1  0  0  0  0
 14 15  1  0  0  0  0
 14 16  2  0  0  0  0
M  END
>  <Name_Molregno>
valeryl-salicylate

>  <5-HT1A>
5

>  <5-HT1B>
5

>  <5-HT1D>
5

>  <5-HT1E>
5

>  <5-HT2A>
5

>  <5-HT3>
5

>  <5-HT5>
5

>  <5-HT6>
5

>  <5-HT7>
5

>  <Alpha-1A>
5

>  <Alpha-1B>
5

>  <Alpha-2A>
5

>  <Alpha-2B>
5

>  <Alpha-2C>
5

>  <DOPAMINE D1>
5

>  <DOPAMINE D2>
5

>  <DOPAMINE D4>
5

>  <DOPAMINE D5>
5

>  <HISTAMINE H1>
5

>  <HISTAMINE H2>
5

>  <HISTAMINE H4>
5

>  <Muscarinic acetylcholine receptor M2>
5

>  <Muscarinic acetylcholine receptor M5>
5

$$$$
ZIPRASIDONE
  Marvin  02231216192D 0   1.00000     0.00000     0

 28 32  0  0  0  0  0  0  0  0999 V2000
   -5.2868    0.2535    0.0000 Cl  0  0  0  0  0  0  0  0  0
   -4.7347    0.8666    0.0000 C   0  0  0  0  0  0  0  0  0
   -4.9897    1.6513    0.0000 C   0  0  0  0  0  0  0  0  0
   -4.4376    2.2643    0.0000 C   0  0  0  0  0  0  0  0  0
   -4.5239    3.0848    0.0000 N   0  0  0  0  0  0  0  0  0
   -3.7702    3.4204    0.0000 C   0  0  0  0  0  0  0  0  0
   -3.5987    4.2274    0.0000 O   0  0  0  0  0  0  0  0  0
   -3.2182    2.8073    0.0000 C   0  0  0  0  0  0  0  0  0
   -3.6307    2.0928    0.0000 C   0  0  0  0  0  0  0  0  0
   -3.3757    1.3082    0.0000 C   0  0  0  0  0  0  0  0  0
   -3.9278    0.6951    0.0000 C   0  0  0  0  0  0  0  0  0
   -3.6728   -0.0895    0.0000 C   0  0  0  0  0  0  0  0  0
   -2.8658   -0.2610    0.0000 C   0  0  0  0  0  0  0  0  0
   -2.6109   -1.0457    0.0000 N   0  0  0  0  0  0  0  0  0
   -1.8039   -1.2172    0.0000 C   0  0  0  0  0  0  0  0  0
   -1.5490   -2.0018    0.0000 C   0  0  0  0  0  0  0  0  0
   -2.1010   -2.6149    0.0000 N   0  0  0  0  0  0  0  0  0
   -2.9080   -2.4434    0.0000 C   0  0  0  0  0  0  0  0  0
   -3.1629   -1.6588    0.0000 C   0  0  0  0  0  0  0  0  0
   -1.8461   -3.3995    0.0000 C   0  0  0  0  0  0  0  0  0
   -2.3310   -4.0670    0.0000 N   0  0  0  0  0  0  0  0  0
   -1.8461   -4.7344    0.0000 S   0  0  0  0  0  0  0  0  0
   -1.0615   -4.4795    0.0000 C   0  0  0  0  0  0  0  0  0
   -1.0615   -3.6545    0.0000 C   0  0  0  0  0  0  0  0  0
   -0.3470   -3.2420    0.0000 C   0  0  0  0  0  0  0  0  0
    0.3675   -3.6545    0.0000 C   0  0  0  0  0  0  0  0  0
    0.3675   -4.4795    0.0000 C   0  0  0  0  0  0  0  0  0
   -0.3470   -4.8920    0.0000 C   0  0  0  0  0  0  0  0  0
  1  2  1  0  0  0  0
  2  3  4  0  0  0  0
  2 11  4  0  0  0  0
  3  4  4  0  0  0  0
  4  5  1  0  0  0  0
  4  9  4  0  0  0  0
  5  6  1  0  0  0  0
  6  7  2  0  0  0  0
  6  8  1  0  0  0  0
  8  9  1  0  0  0  0
  9 10  4  0  0  0  0
 10 11  4  0  0  0  0
 11 12  1  0  0  0  0
 12 13  1  0  0  0  0
 13 14  1  0  0  0  0
 14 15  1  0  0  0  0
 14 19  1  0  0  0  0
 15 16  1  0  0  0  0
 16 17  1  0  0  0  0
 17 18  1  0  0  0  0
 17 20  1  0  0  0  0
 18 19  1  0  0  0  0
 20 21  4  0  0  0  0
 20 24  4  0  0  0  0
 21 22  4  0  0  0  0
 22 23  4  0  0  0  0
 23 24  4  0  0  0  0
 23 28  4  0  0  0  0
 24 25  4  0  0  0  0
 25 26  4  0  0  0  0
 26 27  4  0  0  0  0
 27 28  4  0  0  0  0
M  END
>  <Name_Molregno>
ZIPRASIDONE

>  <5-HT1A>
8.19

>  <5-HT1B>
8.7

>  <5-HT1D>
8.32

>  <5-HT1E>
6.17

>  <5-HT2A>
9.54

>  <5-HT2C>
8.82

>  <5-HT3>
5.7

>  <5-HT5>
6.54

>  <5-HT6>
7.17

>  <5-HT7>
8.23

>  <Alpha-1A>
7.74

>  <Alpha-1B>
8.05

>  <Alpha-2A>
6.8

>  <Alpha-2B>
7.32

>  <Alpha-2C>
7.15

>  <Beta-1>
5.3

>  <Beta-2>
5.15

>  <DOPAMINE D1>
7.1

>  <DOPAMINE D2>
8.39

>  <DOPAMINE D3>
8.21

>  <DOPAMINE D4>
7.43

>  <DOPAMINE D5>
6.82

>  <Dopamine transporter>
5

>  <HISTAMINE H1>
7.51

>  <HISTAMINE H2>
5.46

>  <HISTAMINE H4>
5

>  <Muscarinic acetylcholine receptor M1>
5.53

>  <Muscarinic acetylcholine receptor M2>
5.26

>  <Muscarinic acetylcholine receptor M3>
5.3

>  <Muscarinic acetylcholine receptor M4>
5.4

>  <Muscarinic acetylcholine receptor M5>
5.4

>  <Norepinephrine transporter>
7.36

>  <Serotonin transporter>
6.92

$$$$
ZOTEPINE
  Marvin  02231216192D 0   1.00000     0.00000     0

 22 24  0  0  0  0  0  0  0  0999 V2000
    1.8575   -4.4413    0.0000 Cl  0  0  0  0  0  0  0  0  0
    1.0691   -4.1981    0.0000 C   0  0  0  0  0  0  0  0  0
    0.8856   -3.3938    0.0000 C   0  0  0  0  0  0  0  0  0
    0.0972   -3.1507    0.0000 C   0  0  0  0  0  0  0  0  0
   -0.5076   -3.7118    0.0000 C   0  0  0  0  0  0  0  0  0
   -1.3233   -3.5888    0.0000 S   0  0  0  0  0  0  0  0  0
   -1.7358   -2.8744    0.0000 C   0  0  0  0  0  0  0  0  0
   -1.4344   -2.1064    0.0000 C   0  0  0  0  0  0  0  0  0
   -0.6461   -1.8632    0.0000 C   0  0  0  0  0  0  0  0  0
    0.0356   -2.3280    0.0000 C   0  0  0  0  0  0  0  0  0
    0.7500   -1.9155    0.0000 O   0  0  0  0  0  0  0  0  0
    1.4645   -2.3280    0.0000 C   0  0  0  0  0  0  0  0  0
    2.1790   -1.9155    0.0000 C   0  0  0  0  0  0  0  0  0
    2.8934   -2.3280    0.0000 N   0  0  0  0  0  0  0  0  0
    3.6079   -1.9155    0.0000 C   0  0  0  0  0  0  0  0  0
    2.8934   -3.1530    0.0000 C   0  0  0  0  0  0  0  0  0
   -1.9488   -1.4614    0.0000 C   0  0  0  0  0  0  0  0  0
   -2.7646   -1.5843    0.0000 C   0  0  0  0  0  0  0  0  0
   -3.0660   -2.3523    0.0000 C   0  0  0  0  0  0  0  0  0
   -2.5516   -2.9973    0.0000 C   0  0  0  0  0  0  0  0  0
   -0.3240   -4.5161    0.0000 C   0  0  0  0  0  0  0  0  0
    0.4644   -4.7593    0.0000 C   0  0  0  0  0  0  0  0  0
  1  2  1  0  0  0  0
  2  3  4  0  0  0  0
  2 22  4  0  0  0  0
  3  4  4  0  0  0  0
  4  5  4  0  0  0  0
  4 10  1  0  0  0  0
  5  6  1  0  0  0  0
  5 21  4  0  0  0  0
  6  7  1  0  0  0  0
  7  8  4  0  0  0  0
  7 20  4  0  0  0  0
  8  9  1  0  0  0  0
  8 17  4  0  0  0  0
  9 10  2  0  0  0  0
 10 11  1  0  0  0  0
 11 12  1  0  0  0  0
 12 13  1  0  0  0  0
 13 14  1  0  0  0  0
 14 15  1  0  0  0  0
 14 16  1  0  0  0  0
 17 18  4  0  0  0  0
 18 19  4  0  0  0  0
 19 20  4  0  0  0  0
 21 22  4  0  0  0  0
M  END
>  <Name_Molregno>
ZOTEPINE

>  <5-HT1A>
6.41

>  <5-HT1B>
7.23

>  <5-HT1D>
7.02

>  <5-HT1E>
6.23

>  <5-HT2A>
8.58

>  <5-HT2C>
8.49

>  <5-HT3>
6.33

>  <5-HT5>
7.54

>  <5-HT6>
8.22

>  <5-HT7>
7.92

>  <Alpha-1A>
8.15

>  <Alpha-1B>
8.3

>  <Alpha-2A>
6.68

>  <Alpha-2B>
8.27

>  <Alpha-2C>
7.02

>  <Beta-1>
5.19

>  <Beta-2>
5.32

>  <DOPAMINE D1>
7.15

>  <DOPAMINE D2>
7.98

>  <DOPAMINE D3>
8.19

>  <DOPAMINE D4>
7.57

>  <DOPAMINE D5>
6.61

>  <Dopamine transporter>
5.44

>  <HISTAMINE H1>
8.64

>  <HISTAMINE H2>
6.3

>  <HISTAMINE H4>
5.7

>  <Muscarinic acetylcholine receptor M1>
6.37

>  <Muscarinic acetylcholine receptor M2>
5.92

>  <Muscarinic acetylcholine receptor M3>
6.07

>  <Muscarinic acetylcholine receptor M4>
6.06

>  <Muscarinic acetylcholine receptor M5>
5.8

>  <Norepinephrine transporter>
6.28

>  <Serotonin transporter>
6.41

$$$$
